
 Fire Dynamics Simulator

 Current Date     : November 22, 2017  12:01:39
 Version          : FDS 6.6.0
 Revision         : FDS6.6.0-131-g88ae75a14-HEAD
 Revision Date    : Wed Nov 1 16:03:29 2017 -0400
 Compiler         : Intel ifort 17.0.4
 Compilation Date : Nov 01, 2017  21:03:37

 MPI Enabled;    Number of MPI Processes:       1
 OpenMP Enabled; Number of OpenMP Threads:      4

 MPI version: 3.1
 MPI library version: Open MPI v3.0.0, package: Open MPI gforney@ignis.el.nist.gov Distribution, ident: 3.0.0, repo rev: v3.0.0, Sep 12, 2017

 Job TITLE        : 
 Job ID string    : smoke_sensor


 Grid Dimensions, Mesh     1

   Cells in the X Direction            48
   Cells in the Y Direction            36
   Cells in the Z Direction            12


 Physical Dimensions, Mesh     1

   Length (m)                      12.000
   Width  (m)                       9.000
   Height (m)                       3.000
   Initial Time Step (s)            0.228


 Miscellaneous Parameters

   Simulation Start Time (s)          0.0
   Simulation End Time (s)          120.0
   LES Calculation
   Eddy Viscosity:           Deardorff Model (C_DEARDORFF)                          0.10
   Near-wall Eddy Viscosity: Smagorinsky with Van Driest damping (C_SMAGORINSKY)    0.20
   Turbulent Prandtl Number          0.50
   Turbulent Schmidt Number          0.50
   Ambient Temperature (C)          20.00


 Mass Fraction Transformation Matrix to Convert Species Mixtures (Columns) to Primitive Species (Rows)

                         AIR       REAC_FUE  PRODUCTS
   REAC_FUEL             0.000000  1.000000  0.000000
   NITROGEN              0.763077  0.000000  0.673030
   OXYGEN                0.231181  0.000000  0.000000
   CARBON DIOXIDE        0.000592  0.000000  0.242589
   CARBON MONOXIDE       0.000000  0.000000  0.000000
   WATER VAPOR           0.005149  0.000000  0.070648
   SOOT                  0.000000  0.000000  0.013733


 Primitive Species Information

   REAC_FUEL
   Gas Species
   Molecular Weight (g/mol)           130.42922
   Ambient Density (kg/m^3)            5.422
   Enthalpy of Formation (J/kg)       -3.21E+06

   NITROGEN
   Gas Species
   Molecular Weight (g/mol)            28.01340
   Ambient Density (kg/m^3)            1.165
   Enthalpy of Formation (J/kg)        0.00E+00

   OXYGEN
   Gas Species
   Molecular Weight (g/mol)            31.99880
   Ambient Density (kg/m^3)            1.330
   Enthalpy of Formation (J/kg)        0.00E+00

   CARBON DIOXIDE
   Gas Species
   Molecular Weight (g/mol)            44.00950
   Ambient Density (kg/m^3)            1.830
   Enthalpy of Formation (J/kg)       -8.94E+06

   CARBON MONOXIDE
   Gas Species
   Molecular Weight (g/mol)            28.01010
   Ambient Density (kg/m^3)            1.164
   Enthalpy of Formation (J/kg)       -3.95E+06

   WATER VAPOR
   Gas Species
   Molecular Weight (g/mol)            18.01528
   Ambient Density (kg/m^3)            0.749
   Enthalpy of Formation (J/kg)       -1.34E+07

   SOOT
   Gas Species
   Molecular Weight (g/mol)            10.91042
   Ambient Density (kg/m^3)            0.454
   Enthalpy of Formation (J/kg)        0.00E+00


 Tracked (Lumped) Species Information

   AIR
   Molecular Weight (g/mol)            28.76564
   Ambient Density (kg/m^3)            1.196
   Initial Mass Fraction               1.000
   Enthalpy of Formation (J/kg)     -7.44E+04

   Sub Species                    Mass Fraction     Mole Fraction
   NITROGEN                       7.630774E-01      7.835682E-01
   OXYGEN                         2.311814E-01      2.078229E-01
   CARBON DIOXIDE                 5.919362E-04      3.869034E-04
   WATER VAPOR                    5.149269E-03      8.222023E-03
 
     Viscosity (kg/m/s) Ambient,  293 K:  1.80E-05
                                  500 K:  2.61E-05
                                 1000 K:  4.13E-05
                                 1500 K:  5.37E-05
   Therm. Cond. (W/m/K) Ambient,  293 K:  2.56E-02
                                  500 K:  3.81E-02
                                 1000 K:  6.68E-02
                                 1500 K:  9.24E-02
        Enthalpy (J/kg) Ambient,  293 K: -7.97E+04
                                  500 K:  1.33E+05
                                 1000 K:  6.82E+05
                                 1500 K:  1.28E+06
    Spec. Heat (J/kg/K) Ambient,  293 K:  1.02E+03
                                  500 K:  1.04E+03
                                 1000 K:  1.16E+03
                                 1500 K:  1.23E+03
   Diff. Coeff. (m^2/s) Ambient,  293 K:  1.99E-05
                                  500 K:  4.96E-05
                                 1000 K:  1.58E-04
                                 1500 K:  3.09E-04

   REAC_FUEL
   Molecular Weight (g/mol)           130.42922
   Ambient Density (kg/m^3)            5.422
   Initial Mass Fraction               0.000
   Enthalpy of Formation (J/kg)     -3.21E+06

   Sub Species                    Mass Fraction     Mole Fraction
   REAC_FUEL                      1.000000E+00      1.000000E+00
 
     Viscosity (kg/m/s) Ambient,  293 K:  3.75E-05
                                  500 K:  5.42E-05
                                 1000 K:  8.52E-05
                                 1500 K:  1.11E-04
   Therm. Cond. (W/m/K) Ambient,  293 K:  1.18E-02
                                  500 K:  1.70E-02
                                 1000 K:  2.68E-02
                                 1500 K:  3.48E-02
        Enthalpy (J/kg) Ambient,  293 K: -3.21E+06
                                  500 K: -3.16E+06
                                 1000 K: -3.05E+06
                                 1500 K: -2.94E+06
    Spec. Heat (J/kg/K) Ambient,  293 K:  2.23E+02
                                  500 K:  2.23E+02
                                 1000 K:  2.23E+02
                                 1500 K:  2.23E+02
   Diff. Coeff. (m^2/s) Ambient,  293 K:  1.55E-05
                                  500 K:  3.85E-05
                                 1000 K:  1.22E-04
                                 1500 K:  2.39E-04

   PRODUCTS
   Molecular Weight (g/mol)            28.80371
   Ambient Density (kg/m^3)            1.197
   Initial Mass Fraction               0.000
   Enthalpy of Formation (J/kg)     -3.12E+06

   Sub Species                    Mass Fraction     Mole Fraction
   NITROGEN                       6.730299E-01      6.920173E-01
   CARBON DIOXIDE                 2.425892E-01      1.587718E-01
   CARBON MONOXIDE                0.000000E+00      0.000000E+00
   WATER VAPOR                    7.064759E-02      1.129548E-01
   SOOT                           1.373328E-02      3.625609E-02
 
     Viscosity (kg/m/s) Ambient,  293 K:  1.61E-05
                                  500 K:  2.39E-05
                                 1000 K:  3.88E-05
                                 1500 K:  5.10E-05
   Therm. Cond. (W/m/K) Ambient,  293 K:  2.30E-02
                                  500 K:  3.60E-02
                                 1000 K:  6.69E-02
                                 1500 K:  9.52E-02
        Enthalpy (J/kg) Ambient,  293 K: -3.12E+06
                                  500 K: -2.90E+06
                                 1000 K: -2.30E+06
                                 1500 K: -1.64E+06
    Spec. Heat (J/kg/K) Ambient,  293 K:  1.04E+03
                                  500 K:  1.11E+03
                                 1000 K:  1.27E+03
                                 1500 K:  1.37E+03
   Diff. Coeff. (m^2/s) Ambient,  293 K:  1.95E-05
                                  500 K:  4.92E-05
                                 1000 K:  1.58E-04
                                 1500 K:  3.11E-04


 Gas Phase Reaction Information

   NFPA Babrauskas

   Reaction ID:  POLYURETHANE

   Fuel                                           Heat of Combustion (kJ/kg)
   REAC_FUEL                                                      19023.6298

   Stoichiometry

   Primitive Species Stoich. Coeff.
   Species ID                                                          Molar
   REAC_FUEL                                                       -1.000000
   NITROGEN                                                         0.500000
   OXYGEN                                                          -5.919204
   CARBON DIOXIDE                                                   5.224090
   WATER VAPOR                                                      3.490227
   SOOT                                                             1.195455

   Tracked (Lumped) Species Stoich. Coeff.
   Species ID                                             Molar         Mass
   AIR                                               -28.481969    -6.281584
   REAC_FUEL                                          -1.000000    -1.000000
   PRODUCTS                                           32.972537     7.281584

   Reaction Kinetics

   Arrhenius Parameters
   Pre-exponential:    Infinite
   Activation Energy:  N/A

   ODE Solver:  EXPLICIT EULER
   Extinction Model:  EXTINCTION 2
   Ignition Temperature (K):            0.0
   Critical Flame Temperature (K):   1700.2


 Material Information


 Surface Conditions

   0 INERT (DEFAULT)

   1 FIRE
     HRR Per Unit Area (kW/m2)         50.0
     REAC_FUEL Mass Flux (kg/s/m2)   2.63E-03

   2 OPEN
     Passive Vent to Atmosphere

   3 MIRROR
     Symmetry Plane

   4 INTERPOLATED

   5 PERIODIC

   6 HVAC

   7 MASSLESS TRACER

   8 DROPLET

   9 VEGETATION

  10 EVACUATION_OUTFLOW
     Normal Velocity (m/s)         0.000

  11 MASSLESS TARGET

  12 PERIODIC WIND


 Slice File Information, Mesh     1

   Sampling Interval (s)             0.120

   1 Nodes:   0  48   0  36  10  10, Quantity: SOOT EXTINCTION COEFFICIENT


 Radiation Model Information

   Number of control angles  104
   Time step increment         3
   Angle increment             5
   Theta band N_phi   Solid angle
     1:        4  0.12
     2:       12  0.11
     3:       16  0.13
     4:       20  0.12
     5:       20  0.12
     6:       16  0.13
     7:       12  0.11
     8:        4  0.12
   Using gray gas absorption.
   Mean beam length  1.250 m
 
 

 Run Time Diagnostics

       Time Step       1   November 22, 2017  12:01:40
       Step Size:    0.228E+00 s, Total Time:       0.23 s
       Pressure Iterations:      1
       Maximum Velocity Error:  0.20E-02 on Mesh   1 at (  26  34  10)
       Maximum Pressure Error:  0.18E+00 on Mesh   1 at (  44  30   1)
       ---------------------------------------------------------------
       Max CFL number:  0.17E-01 at (  24,  14,   7)
       Max divergence:  0.41E-01 at (  44,  30,   1)
       Min divergence: -0.12E-05 at (  36,  19,   8)
       Max VN number:   0.13E-01 at (  34,   9,   7)
       Total Heat Release Rate:              0.916 kW
 
       Time Step       2   November 22, 2017  12:01:40
       Step Size:    0.228E+00 s, Total Time:       0.46 s
       Pressure Iterations:      1
       Maximum Velocity Error:  0.18E-02 on Mesh   1 at (  45  28   2)
       Maximum Pressure Error:  0.48E+00 on Mesh   1 at (  43  29   1)
       ---------------------------------------------------------------
       Max CFL number:  0.24E-01 at (  43,  30,   1)
       Max divergence:  0.13E+00 at (  43,  29,   1)
       Min divergence: -0.12E-05 at (  36,  19,   8)
       Max VN number:   0.13E-01 at (  34,   9,   7)
       Total Heat Release Rate:              2.948 kW
 
       Time Step       3   November 22, 2017  12:01:40
       Step Size:    0.228E+00 s, Total Time:       0.68 s
       Pressure Iterations:      1
       Maximum Velocity Error:  0.14E-02 on Mesh   1 at (  45  28   2)
       Maximum Pressure Error:  0.37E+00 on Mesh   1 at (  43  29   1)
       ---------------------------------------------------------------
       Max CFL number:  0.57E-01 at (  43,  30,   1)
       Max divergence:  0.21E+00 at (  44,  29,   1)
       Min divergence: -0.12E-05 at (  36,  19,   8)
       Max VN number:   0.13E-01 at (  34,   9,   7)
       Total Heat Release Rate:              5.144 kW
       Radiation Loss to Boundaries:        -0.435 kW
 
       Time Step       4   November 22, 2017  12:01:40
       Step Size:    0.228E+00 s, Total Time:       0.91 s
       Pressure Iterations:      1
       Maximum Velocity Error:  0.29E-02 on Mesh   1 at (  45  28   1)
       Maximum Pressure Error:  0.86E-01 on Mesh   1 at (  43  29   1)
       ---------------------------------------------------------------
       Max CFL number:  0.11E+00 at (  43,  30,   1)
       Max divergence:  0.25E+00 at (  43,  29,   1)
       Min divergence: -0.12E-05 at (  36,  19,   8)
       Max VN number:   0.13E-01 at (  34,   9,   7)
       Total Heat Release Rate:              7.101 kW
       Radiation Loss to Boundaries:        -1.191 kW
 
       Time Step       5   November 22, 2017  12:01:41
       Step Size:    0.228E+00 s, Total Time:       1.14 s
       Pressure Iterations:      1
       Maximum Velocity Error:  0.40E-02 on Mesh   1 at (  45  28   1)
       Maximum Pressure Error:  0.34E+00 on Mesh   1 at (  44  29   1)
       ---------------------------------------------------------------
       Max CFL number:  0.18E+00 at (  43,  30,   1)
       Max divergence:  0.27E+00 at (  43,  30,   1)
       Min divergence: -0.12E-05 at (  36,  19,   8)
       Max VN number:   0.26E-01 at (  43,  30,   2)
       Total Heat Release Rate:              8.680 kW
       Radiation Loss to Boundaries:        -2.547 kW
 
       Time Step       6   November 22, 2017  12:01:41
       Step Size:    0.228E+00 s, Total Time:       1.37 s
       Pressure Iterations:      1
       Maximum Velocity Error:  0.51E-02 on Mesh   1 at (  45  28   1)
       Maximum Pressure Error:  0.59E+00 on Mesh   1 at (  44  29   1)
       ---------------------------------------------------------------
       Max CFL number:  0.27E+00 at (  43,  30,   1)
       Max divergence:  0.23E+00 at (  43,  30,   1)
       Min divergence: -0.12E-05 at (  36,  19,   8)
       Max VN number:   0.52E-01 at (  43,  30,   2)
       Total Heat Release Rate:              9.877 kW
       Radiation Loss to Boundaries:        -4.243 kW
 
       Time Step       7   November 22, 2017  12:01:41
       Step Size:    0.228E+00 s, Total Time:       1.60 s
       Pressure Iterations:      1
       Maximum Velocity Error:  0.37E-02 on Mesh   1 at (  44  26   1)
       Maximum Pressure Error:  0.81E-01 on Mesh   1 at (  44  29   1)
       ---------------------------------------------------------------
       Max CFL number:  0.39E+00 at (  43,  30,   1)
       Max divergence:  0.23E+00 at (  43,  30,   1)
       Min divergence: -0.64E-02 at (  43,  30,   2)
       Max VN number:   0.93E-01 at (  43,  30,   2)
       Total Heat Release Rate:             10.750 kW
       Radiation Loss to Boundaries:        -4.432 kW
 
       Time Step       8   November 22, 2017  12:01:41
       Step Size:    0.228E+00 s, Total Time:       1.83 s
       Pressure Iterations:      1
       Maximum Velocity Error:  0.45E-02 on Mesh   1 at (  45  28   2)
       Maximum Pressure Error:  0.28E+00 on Mesh   1 at (  43  30   1)
       ---------------------------------------------------------------
       Max CFL number:  0.53E+00 at (  43,  30,   1)
       Max divergence:  0.25E+00 at (  43,  30,   1)
       Min divergence: -0.26E-01 at (  43,  30,   2)
       Max VN number:   0.19E+00 at (  43,  30,   1)
       Total Heat Release Rate:             11.349 kW
       Radiation Loss to Boundaries:        -3.849 kW
 
       Time Step       9   November 22, 2017  12:01:41
       Step Size:    0.228E+00 s, Total Time:       2.05 s
       Pressure Iterations:      1
       Maximum Velocity Error:  0.87E-02 on Mesh   1 at (  45  28   2)
       Maximum Pressure Error:  0.37E+00 on Mesh   1 at (  44  29   1)
       ---------------------------------------------------------------
       Max CFL number:  0.65E+00 at (  43,  30,   1)
       Max divergence:  0.26E+00 at (  43,  30,   1)
       Min divergence: -0.18E-01 at (  44,  29,   2)
       Max VN number:   0.32E+00 at (  43,  30,   1)
       Total Heat Release Rate:             11.752 kW
       Radiation Loss to Boundaries:        -3.281 kW
 
       Time Step      10   November 22, 2017  12:01:42
       Step Size:    0.228E+00 s, Total Time:       2.28 s
       Pressure Iterations:      1
       Maximum Velocity Error:  0.13E-01 on Mesh   1 at (  45  28   2)
       Maximum Pressure Error:  0.36E+00 on Mesh   1 at (  44  29   1)
       ---------------------------------------------------------------
       Max CFL number:  0.74E+00 at (  44,  29,   1)
       Max divergence:  0.25E+00 at (  44,  29,   1)
       Min divergence: -0.26E-01 at (  43,  30,   3)
       Max VN number:   0.43E+00 at (  43,  30,   1)
       Total Heat Release Rate:             12.018 kW
       Radiation Loss to Boundaries:        -2.841 kW
 
       Time Step      20   November 22, 2017  12:01:44
       Step Size:    0.125E+00 s, Total Time:       3.89 s
       Pressure Iterations:      1
       Maximum Velocity Error:  0.17E-01 on Mesh   1 at (  45  28   5)
       Maximum Pressure Error:  0.43E+00 on Mesh   1 at (  44  29   7)
       ---------------------------------------------------------------
       Max CFL number:  0.87E+00 at (  44,  29,   6)
       Max divergence:  0.26E+00 at (  43,  29,   1)
       Min divergence: -0.49E-01 at (  44,  29,   3)
       Max VN number:   0.31E+00 at (  44,  29,   6)
       Total Heat Release Rate:             12.814 kW
       Radiation Loss to Boundaries:        -3.681 kW
 
       Time Step      30   November 22, 2017  12:01:45
       Step Size:    0.125E+00 s, Total Time:       5.14 s
       Pressure Iterations:      1
       Maximum Velocity Error:  0.35E-01 on Mesh   1 at (  45  30   9)
       Maximum Pressure Error:  0.63E+00 on Mesh   1 at (  44  28  10)
       ---------------------------------------------------------------
       Max CFL number:  0.86E+00 at (  44,  29,   6)
       Max divergence:  0.26E+00 at (  44,  30,   1)
       Min divergence: -0.50E-01 at (  44,  29,   3)
       Max VN number:   0.65E+00 at (  43,  29,  10)
       Total Heat Release Rate:             12.500 kW
       Radiation Loss to Boundaries:        -3.547 kW
 
       Time Step      40   November 22, 2017  12:01:47
       Step Size:    0.137E+00 s, Total Time:       6.44 s
       Pressure Iterations:      1
       Maximum Velocity Error:  0.41E-01 on Mesh   1 at (  38  27  11)
       Maximum Pressure Error:  0.66E+00 on Mesh   1 at (  38  27  10)
       ---------------------------------------------------------------
       Max CFL number:  0.86E+00 at (  44,  29,   5)
       Max divergence:  0.30E+00 at (  44,  29,   1)
       Min divergence: -0.82E-01 at (  44,  29,   3)
       Max VN number:   0.58E+00 at (  43,  28,  10)
       Total Heat Release Rate:             12.450 kW
       Radiation Loss to Boundaries:        -3.473 kW
 
       Time Step      50   November 22, 2017  12:01:49
       Step Size:    0.137E+00 s, Total Time:       7.81 s
       Pressure Iterations:      1
       Maximum Velocity Error:  0.58E-01 on Mesh   1 at (  37  26   9)
       Maximum Pressure Error:  0.74E+00 on Mesh   1 at (  44  29   1)
       ---------------------------------------------------------------
       Max CFL number:  0.95E+00 at (  35,  27,   9)
       Max divergence:  0.28E+00 at (  44,  29,   1)
       Min divergence: -0.92E-01 at (  44,  29,   3)
       Max VN number:   0.54E+00 at (  44,  29,  10)
       Total Heat Release Rate:             12.500 kW
       Radiation Loss to Boundaries:        -3.586 kW
 
       Time Step      60   November 22, 2017  12:01:51
       Step Size:    0.137E+00 s, Total Time:       9.18 s
       Pressure Iterations:      1
       Maximum Velocity Error:  0.38E-01 on Mesh   1 at (  34  26   8)
       Maximum Pressure Error:  0.81E+00 on Mesh   1 at (  44  29   1)
       ---------------------------------------------------------------
       Max CFL number:  0.89E+00 at (  44,  29,   6)
       Max divergence:  0.29E+00 at (  44,  30,   1)
       Min divergence: -0.16E+00 at (  44,  29,   2)
       Max VN number:   0.62E+00 at (  44,  29,  10)
       Total Heat Release Rate:             12.500 kW
       Radiation Loss to Boundaries:        -3.551 kW
 
       Time Step      70   November 22, 2017  12:01:53
       Step Size:    0.137E+00 s, Total Time:      10.55 s
       Pressure Iterations:      1
       Maximum Velocity Error:  0.22E-01 on Mesh   1 at (  45  28   5)
       Maximum Pressure Error:  0.34E+00 on Mesh   1 at (  45  29   4)
       ---------------------------------------------------------------
       Max CFL number:  0.91E+00 at (  44,  29,   7)
       Max divergence:  0.28E+00 at (  44,  30,   1)
       Min divergence: -0.11E+00 at (  44,  29,   2)
       Max VN number:   0.63E+00 at (  44,  29,  10)
       Total Heat Release Rate:             12.492 kW
       Radiation Loss to Boundaries:        -3.534 kW
 
       Time Step      80   November 22, 2017  12:01:54
       Step Size:    0.137E+00 s, Total Time:      11.92 s
       Pressure Iterations:      1
       Maximum Velocity Error:  0.37E-01 on Mesh   1 at (  45  29   9)
       Maximum Pressure Error:  0.26E+00 on Mesh   1 at (  45  29   8)
       ---------------------------------------------------------------
       Max CFL number:  0.81E+00 at (  45,  29,   5)
       Max divergence:  0.27E+00 at (  43,  30,   1)
       Min divergence: -0.12E+00 at (  44,  29,   2)
       Max VN number:   0.74E+00 at (  45,  29,   8)
       Total Heat Release Rate:             12.501 kW
       Radiation Loss to Boundaries:        -3.783 kW
 
       Time Step      90   November 22, 2017  12:01:56
       Step Size:    0.151E+00 s, Total Time:      13.42 s
       Pressure Iterations:      1
       Maximum Velocity Error:  0.11E-01 on Mesh   1 at (  45  28   7)
       Maximum Pressure Error:  0.27E+00 on Mesh   1 at (  44  29   1)
       ---------------------------------------------------------------
       Max CFL number:  0.94E+00 at (  44,  29,   8)
       Max divergence:  0.26E+00 at (  44,  30,   1)
       Min divergence: -0.98E-01 at (  44,  29,   2)
       Max VN number:   0.63E+00 at (  45,  29,   8)
       Total Heat Release Rate:             12.497 kW
       Radiation Loss to Boundaries:        -3.555 kW
 
       Time Step     100   November 22, 2017  12:01:58
       Step Size:    0.151E+00 s, Total Time:      14.93 s
       Pressure Iterations:      1
       Maximum Velocity Error:  0.88E-02 on Mesh   1 at (  45  28   7)
       Maximum Pressure Error:  0.28E+00 on Mesh   1 at (  44  29   1)
       ---------------------------------------------------------------
       Max CFL number:  0.94E+00 at (  44,  29,   8)
       Max divergence:  0.27E+00 at (  44,  30,   1)
       Min divergence: -0.91E-01 at (  44,  29,   2)
       Max VN number:   0.67E+00 at (  45,  29,   8)
       Total Heat Release Rate:             12.500 kW
       Radiation Loss to Boundaries:        -3.658 kW
 
       Time Step     200   November 22, 2017  12:02:16
       Step Size:    0.166E+00 s, Total Time:      30.22 s
       Pressure Iterations:      1
       Maximum Velocity Error:  0.89E-02 on Mesh   1 at (  43  28  11)
       Maximum Pressure Error:  0.30E+00 on Mesh   1 at (  43  29   1)
       ---------------------------------------------------------------
       Max CFL number:  0.85E+00 at (  44,  29,   7)
       Max divergence:  0.25E+00 at (  43,  29,   1)
       Min divergence: -0.29E-01 at (  43,  29,   4)
       Max VN number:   0.70E+00 at (  45,  29,   8)
       Total Heat Release Rate:             12.501 kW
       Radiation Loss to Boundaries:        -3.578 kW
 
       Time Step     300   November 22, 2017  12:02:34
       Step Size:    0.161E+00 s, Total Time:      46.04 s
       Pressure Iterations:      1
       Maximum Velocity Error:  0.15E-01 on Mesh   1 at (  35  28  11)
       Maximum Pressure Error:  0.21E+00 on Mesh   1 at (  44  27  10)
       ---------------------------------------------------------------
       Max CFL number:  0.89E+00 at (  42,  28,   7)
       Max divergence:  0.27E+00 at (  43,  30,   1)
       Min divergence: -0.31E-01 at (  43,  28,   3)
       Max VN number:   0.58E+00 at (  43,  28,  10)
       Total Heat Release Rate:             12.480 kW
       Radiation Loss to Boundaries:        -3.619 kW
 
       Time Step     400   November 22, 2017  12:02:52
       Step Size:    0.173E+00 s, Total Time:      63.96 s
       Pressure Iterations:      1
       Maximum Velocity Error:  0.33E-01 on Mesh   1 at (  44  27  11)
       Maximum Pressure Error:  0.32E+00 on Mesh   1 at (  43  27  10)
       ---------------------------------------------------------------
       Max CFL number:  0.93E+00 at (  43,  28,   6)
       Max divergence:  0.26E+00 at (  43,  30,   1)
       Min divergence: -0.22E-01 at (  43,  28,   1)
       Max VN number:   0.59E+00 at (  42,  27,  10)
       Total Heat Release Rate:             12.502 kW
       Radiation Loss to Boundaries:        -3.565 kW
 
       Time Step     500   November 22, 2017  12:03:10
       Step Size:    0.189E+00 s, Total Time:      81.22 s
       Pressure Iterations:      1
       Maximum Velocity Error:  0.36E-01 on Mesh   1 at (  44  32  11)
       Maximum Pressure Error:  0.30E+00 on Mesh   1 at (  44  32  10)
       ---------------------------------------------------------------
       Max CFL number:  0.96E+00 at (  44,  30,  10)
       Max divergence:  0.26E+00 at (  43,  30,   1)
       Min divergence: -0.21E-01 at (  42,  28,   3)
       Max VN number:   0.59E+00 at (  42,  28,  10)
       Total Heat Release Rate:             12.495 kW
       Radiation Loss to Boundaries:        -3.526 kW
 
       Time Step     600   November 22, 2017  12:03:28
       Step Size:    0.197E+00 s, Total Time:      98.80 s
       Pressure Iterations:      1
       Maximum Velocity Error:  0.31E-01 on Mesh   1 at (  41  27  11)
       Maximum Pressure Error:  0.17E+00 on Mesh   1 at (  41  27  10)
       ---------------------------------------------------------------
       Max CFL number:  0.90E+00 at (  41,  27,   9)
       Max divergence:  0.25E+00 at (  43,  29,   1)
       Min divergence: -0.47E-01 at (  42,  28,   1)
       Max VN number:   0.51E+00 at (  41,  29,   1)
       Total Heat Release Rate:             12.500 kW
       Radiation Loss to Boundaries:        -4.072 kW
 
       Time Step     700   November 22, 2017  12:03:47
       Step Size:    0.168E+00 s, Total Time:     116.56 s
       Pressure Iterations:      1
       Maximum Velocity Error:  0.28E-01 on Mesh   1 at (  43  31  11)
       Maximum Pressure Error:  0.26E+00 on Mesh   1 at (  43  34  10)
       ---------------------------------------------------------------
       Max CFL number:  0.88E+00 at (  41,  29,   7)
       Max divergence:  0.30E+00 at (  43,  29,   1)
       Min divergence: -0.25E-01 at (  43,  28,   3)
       Max VN number:   0.45E+00 at (  43,  34,  10)
       Total Heat Release Rate:             12.807 kW
       Radiation Loss to Boundaries:        -4.156 kW
 
       Time Step     718   November 22, 2017  12:03:50
       Step Size:    0.138E+00 s, Total Time:     120.00 s
       Pressure Iterations:      1
       Maximum Velocity Error:  0.35E-01 on Mesh   1 at (  44  27  11)
       Maximum Pressure Error:  0.43E+00 on Mesh   1 at (  44  27  10)
       ---------------------------------------------------------------
       Max CFL number:  0.73E+00 at (  42,  27,   6)
       Max divergence:  0.28E+00 at (  43,  29,   1)
       Min divergence: -0.27E-01 at (  42,  28,   1)
       Max VN number:   0.35E+00 at (  44,  27,  10)
       Total Heat Release Rate:             13.919 kW
       Radiation Loss to Boundaries:        -3.944 kW
 


 Time Stepping Wall Clock Time (s):      130.639
 Total Elapsed Wall Clock Time (s):      135.192

STOP: FDS completed successfully (CHID: smoke_sensor)
