
 Fire Dynamics Simulator

 Current Date     : February 11, 2016  13:02:03
 Version          : FDS 6.3.2
 Revision         : Git-r5-0-gf5004c4
 Revision Date    : Tue Nov 17 17:14:41 2015 -0500
 Compilation Date : Nov 18, 2015  13:16:16

 MPI Enabled; Number of MPI Processes:     1
 OpenMP Enabled; Number of OpenMP Threads:   4

 MPI version: 3.0
 MPI library version: Open MPI v1.8.4, package: Open MPI gforney@645496 Distribution, ident: 1.8.4, repo rev: v1.8.3-330-g0344f04, Dec 19, 2014

 Job TITLE        : 
 Job ID string    : smoke_sensor


 Grid Dimensions, Mesh     1

   Cells in the X Direction            48
   Cells in the Y Direction            36
   Cells in the Z Direction            12


 Physical Dimensions, Mesh     1

   Length (m)                      12.000
   Width  (m)                       9.000
   Height (m)                       3.000
   Initial Time Step (s)            0.228


 Miscellaneous Parameters

   Simulation Start Time (s)          0.0
   Simulation End Time (s)          120.0
   LES Calculation
   Deardorff Model (C_DEARDORFF)     0.10
   Turbulent Prandtl Number          0.50
   Turbulent Schmidt Number          0.50
   Ambient Temperature (C)          20.00


 Mass Fraction Transformation Matrix to Convert Species Mixtures (Columns) to Primitive Species (Rows)

                         AIR       REAC_FUE  PRODUCTS
   REAC_FUEL             0.000000  1.000000  0.000000
   NITROGEN              0.763077  0.000000  0.673030
   OXYGEN                0.231181  0.000000  0.000000
   CARBON DIOXIDE        0.000592  0.000000  0.242589
   CARBON MONOXIDE       0.000000  0.000000  0.000000
   WATER VAPOR           0.005149  0.000000  0.070648
   SOOT                  0.000000  0.000000  0.013733


 Primitive Species Information

   REAC_FUEL
   Gas Species
   Molecular Weight (g/mol)           130.42922
   Ambient Density (kg/m^3)            5.422
   Enthalpy of Formation (J/kg)       -1.89E+08

   NITROGEN
   Gas Species
   Molecular Weight (g/mol)            28.01340
   Ambient Density (kg/m^3)            1.165
   Enthalpy of Formation (J/kg)        0.00E+00

   OXYGEN
   Gas Species
   Molecular Weight (g/mol)            31.99880
   Ambient Density (kg/m^3)            1.330
   Enthalpy of Formation (J/kg)        0.00E+00

   CARBON DIOXIDE
   Gas Species
   Molecular Weight (g/mol)            44.00950
   Ambient Density (kg/m^3)            1.830
   Enthalpy of Formation (J/kg)       -8.94E+06

   CARBON MONOXIDE
   Gas Species
   Molecular Weight (g/mol)            28.01010
   Ambient Density (kg/m^3)            1.164
   Enthalpy of Formation (J/kg)       -3.95E+06

   WATER VAPOR
   Gas Species
   Molecular Weight (g/mol)            18.01528
   Ambient Density (kg/m^3)            0.749
   Enthalpy of Formation (J/kg)       -1.34E+07

   SOOT
   Gas Species
   Molecular Weight (g/mol)            10.91042
   Ambient Density (kg/m^3)            0.454
   Enthalpy of Formation (J/kg)        0.00E+00


 Tracked (Lumped) Species Information

   AIR
   Molecular Weight (g/mol)            28.76564
   Ambient Density (kg/m^3)            1.196
   Initial Mass Fraction               1.000
   Enthalpy of Formation (J/kg)     -7.44E+04

   Sub Species                    Mass Fraction     Mole Fraction
   NITROGEN                       7.630774E-01      7.835682E-01
   OXYGEN                         2.311814E-01      2.078229E-01
   CARBON DIOXIDE                 5.919362E-04      3.869034E-04
   WATER VAPOR                    5.149269E-03      8.222023E-03
 
   Viscosity (kg/m/s)   Ambient (293 K):  1.80E-05
                                  500 K:  2.61E-05
                                 1000 K:  4.13E-05
                                 1500 K:  5.37E-05
   Therm. Cond. (W/m/K) Ambient (293 K):  2.56E-02
                                  500 K:  3.81E-02
                                 1000 K:  6.68E-02
                                 1500 K:  9.24E-02
   Spec. Heat (J/kg/K)  Ambient (293 K):  1.02E+03
                                  500 K:  1.04E+03
                                 1000 K:  1.16E+03
                                 1500 K:  1.23E+03
   Diff. Coeff. (m^2/s) Ambient (293 K):  1.99E-05
                                  500 K:  4.96E-05
                                 1000 K:  1.58E-04
                                 1500 K:  3.09E-04

   REAC_FUEL
   Molecular Weight (g/mol)           130.42922
   Ambient Density (kg/m^3)            5.422
   Initial Mass Fraction               0.000
   Enthalpy of Formation (J/kg)     -3.21E+06

   Sub Species                    Mass Fraction     Mole Fraction
   REAC_FUEL                      1.000000E+00      1.000000E+00
 
   Viscosity (kg/m/s)   Ambient (293 K):  3.85E-05
                                  500 K:  5.59E-05
                                 1000 K:  8.80E-05
                                 1500 K:  1.14E-04
   Therm. Cond. (W/m/K) Ambient (293 K):  1.72E-02
                                  500 K:  2.49E-02
                                 1000 K:  3.93E-02
                                 1500 K:  5.11E-02
   Spec. Heat (J/kg/K)  Ambient (293 K):  2.23E+02
                                  500 K:  2.23E+02
                                 1000 K:  2.23E+02
                                 1500 K:  2.23E+02
   Diff. Coeff. (m^2/s) Ambient (293 K):  1.57E-05
                                  500 K:  3.90E-05
                                 1000 K:  1.24E-04
                                 1500 K:  2.43E-04

   PRODUCTS
   Molecular Weight (g/mol)            28.80371
   Ambient Density (kg/m^3)            1.197
   Initial Mass Fraction               0.000
   Enthalpy of Formation (J/kg)     -3.12E+06

   Sub Species                    Mass Fraction     Mole Fraction
   NITROGEN                       6.730299E-01      6.920173E-01
   CARBON DIOXIDE                 2.425892E-01      1.587718E-01
   CARBON MONOXIDE                0.000000E+00      0.000000E+00
   WATER VAPOR                    7.064759E-02      1.129548E-01
   SOOT                           1.373328E-02      3.625609E-02
 
   Viscosity (kg/m/s)   Ambient (293 K):  1.61E-05
                                  500 K:  2.39E-05
                                 1000 K:  3.88E-05
                                 1500 K:  5.10E-05
   Therm. Cond. (W/m/K) Ambient (293 K):  2.30E-02
                                  500 K:  3.60E-02
                                 1000 K:  6.69E-02
                                 1500 K:  9.52E-02
   Spec. Heat (J/kg/K)  Ambient (293 K):  1.04E+03
                                  500 K:  1.11E+03
                                 1000 K:  1.27E+03
                                 1500 K:  1.37E+03
   Diff. Coeff. (m^2/s) Ambient (293 K):  1.95E-05
                                  500 K:  4.92E-05
                                 1000 K:  1.58E-04
                                 1500 K:  3.11E-04


 Gas Phase Reaction Information

   NFPA Babrauskas

   Reaction ID:  POLYURETHANE

   Fuel                                           Heat of Combustion (kJ/kg)
   REAC_FUEL                                                      19023.6298

   Stoichiometry

   Primitive Species
   Species ID                                                 Stoich. Coeff.
   REAC_FUEL                                                       -1.000000
   NITROGEN                                                         0.500000
   OXYGEN                                                          -5.919204
   CARBON DIOXIDE                                                   5.224090
   WATER VAPOR                                                      3.490227
   SOOT                                                             1.195455

   Tracked (Lumped) Species
   Species ID                                                 Stoich. Coeff.
   AIR                                                            -28.481969
   REAC_FUEL                                                       -1.000000
   PRODUCTS                                                        32.972537

   Reaction Kinetics

   Arrhenius Parameters
   Pre-exponential:    Infinite
   Activation Energy:  N/A

   ODE Solver:  EXPLICIT EULER
   Extinction Model:  EXTINCTION 2
   Ignition Temperature (K):            0.0
   Critical Flame Temperature (K):   1600.2


 Material Information


 Surface Conditions

   0 INERT (DEFAULT)

   1 FIRE
     HRR Per Unit Area (kW/m2)         50.0
     REAC_FUEL Mass Flux (kg/s/m2)   2.63E-03

   2 OPEN
     Passive Vent to Atmosphere

   3 MIRROR
     Symmetry Plane

   4 INTERPOLATED

   5 PERIODIC

   6 HVAC

   7 MASSLESS TRACER

   8 DROPLET

   9 VEGETATION

  10 EVACUATION_OUTFLOW
     Normal Velocity (m/s)         0.000

  11 MASSLESS TARGET


 Slice File Information, Mesh     1

   Sampling Interval (s)             0.120

   1 Nodes:   0  48   0  36   9   9, Quantity: SOOT OPTICAL DENSITY


 Radiation Model Information

   Number of control angles  104
   Time step increment         3
   Angle increment             5
   Theta band N_phi   Solid angle
     1:        4  0.12
     2:       12  0.11
     3:       16  0.13
     4:       20  0.12
     5:       20  0.12
     6:       16  0.13
     7:       12  0.11
     8:        4  0.12
   Using gray gas absorption.
   Mean beam length  1.250 m
 
 

 Run Time Diagnostics

       Time Step       1   February 11, 2016  13:02:03
       Step Size:    0.228E+00 s, Total Time:       0.23 s
       Pressure Iterations:      1
       Maximum Velocity Error:  0.20E-02 on Mesh   1 at (  26  34  10)
       ---------------------------------------------------------------
       Max CFL number:  0.17E-01 at ( 24, 14,  7)
       Max divergence:  0.26E-01 at ( 44, 30,  1)
       Min divergence: -0.12E-05 at ( 36, 19,  8)
       Max VN number:   0.13E-01 at ( 34,  9,  7)
       Max HRRPUV:  0.14E+02 kW/m^3
       Total Heat Release Rate:              0.894 kW
       Radiation Loss to Boundaries:        -0.297 kW
 
       Time Step       2   February 11, 2016  13:02:03
       Step Size:    0.228E+00 s, Total Time:       0.46 s
       Pressure Iterations:      1
       Maximum Velocity Error:  0.14E-02 on Mesh   1 at (  43  35   1)
       ---------------------------------------------------------------
       Max CFL number:  0.19E-01 at ( 43, 30,  1)
       Max divergence:  0.86E-01 at ( 43, 30,  1)
       Min divergence: -0.12E-05 at ( 36, 19,  8)
       Max VN number:   0.13E-01 at ( 34,  9,  7)
       Max HRRPUV:  0.47E+02 kW/m^3
       Total Heat Release Rate:              2.918 kW
       Radiation Loss to Boundaries:        -1.006 kW
 
       Time Step       3   February 11, 2016  13:02:03
       Step Size:    0.228E+00 s, Total Time:       0.68 s
       Pressure Iterations:      1
       Maximum Velocity Error:  0.13E-02 on Mesh   1 at (  45  28   2)
       ---------------------------------------------------------------
       Max CFL number:  0.42E-01 at ( 43, 30,  1)
       Max divergence:  0.17E+00 at ( 43, 30,  1)
       Min divergence: -0.20E-01 at ( 43, 31,  1)
       Max VN number:   0.13E-01 at ( 34,  9,  7)
       Max HRRPUV:  0.82E+02 kW/m^3
       Total Heat Release Rate:              5.126 kW
       Radiation Loss to Boundaries:        -1.781 kW
 
       Time Step       4   February 11, 2016  13:02:04
       Step Size:    0.228E+00 s, Total Time:       0.91 s
       Pressure Iterations:      1
       Maximum Velocity Error:  0.91E-03 on Mesh   1 at (  45  28   1)
       ---------------------------------------------------------------
       Max CFL number:  0.84E-01 at ( 43, 30,  1)
       Max divergence:  0.23E+00 at ( 43, 30,  1)
       Min divergence: -0.17E-01 at ( 43, 31,  1)
       Max VN number:   0.13E-01 at ( 34,  9,  7)
       Max HRRPUV:  0.11E+03 kW/m^3
       Total Heat Release Rate:              7.101 kW
       Radiation Loss to Boundaries:        -2.441 kW
 
       Time Step       5   February 11, 2016  13:02:04
       Step Size:    0.228E+00 s, Total Time:       1.14 s
       Pressure Iterations:      1
       Maximum Velocity Error:  0.19E-02 on Mesh   1 at (  45  28   1)
       ---------------------------------------------------------------
       Max CFL number:  0.14E+00 at ( 43, 30,  1)
       Max divergence:  0.26E+00 at ( 43, 30,  1)
       Min divergence: -0.13E-01 at ( 45, 29,  1)
       Max VN number:   0.19E-01 at ( 43, 30,  2)
       Max HRRPUV:  0.14E+03 kW/m^3
       Total Heat Release Rate:              8.693 kW
       Radiation Loss to Boundaries:        -3.011 kW
 
       Time Step       6   February 11, 2016  13:02:04
       Step Size:    0.228E+00 s, Total Time:       1.37 s
       Pressure Iterations:      1
       Maximum Velocity Error:  0.26E-02 on Mesh   1 at (  45  28   1)
       ---------------------------------------------------------------
       Max CFL number:  0.23E+00 at ( 43, 30,  1)
       Max divergence:  0.29E+00 at ( 43, 30,  1)
       Min divergence: -0.15E-01 at ( 43, 30,  2)
       Max VN number:   0.39E-01 at ( 43, 30,  2)
       Max HRRPUV:  0.16E+03 kW/m^3
       Total Heat Release Rate:              9.893 kW
       Radiation Loss to Boundaries:        -3.428 kW
 
       Time Step       7   February 11, 2016  13:02:04
       Step Size:    0.228E+00 s, Total Time:       1.60 s
       Pressure Iterations:      1
       Maximum Velocity Error:  0.43E-02 on Mesh   1 at (  45  28   1)
       ---------------------------------------------------------------
       Max CFL number:  0.35E+00 at ( 43, 30,  1)
       Max divergence:  0.31E+00 at ( 43, 30,  1)
       Min divergence: -0.18E-01 at ( 43, 30,  2)
       Max VN number:   0.73E-01 at ( 43, 30,  2)
       Max HRRPUV:  0.17E+03 kW/m^3
       Total Heat Release Rate:             10.756 kW
       Radiation Loss to Boundaries:        -3.668 kW
 
       Time Step       8   February 11, 2016  13:02:05
       Step Size:    0.228E+00 s, Total Time:       1.83 s
       Pressure Iterations:      1
       Maximum Velocity Error:  0.45E-02 on Mesh   1 at (  44  26   1)
       ---------------------------------------------------------------
       Max CFL number:  0.49E+00 at ( 43, 30,  1)
       Max divergence:  0.30E+00 at ( 43, 30,  1)
       Min divergence: -0.40E-01 at ( 43, 30,  2)
       Max VN number:   0.13E+00 at ( 43, 30,  1)
       Max HRRPUV:  0.18E+03 kW/m^3
       Total Heat Release Rate:             11.351 kW
       Radiation Loss to Boundaries:        -3.921 kW
 
       Time Step       9   February 11, 2016  13:02:05
       Step Size:    0.228E+00 s, Total Time:       2.05 s
       Pressure Iterations:      1
       Maximum Velocity Error:  0.79E-02 on Mesh   1 at (  45  28   2)
       ---------------------------------------------------------------
       Max CFL number:  0.64E+00 at ( 43, 30,  1)
       Max divergence:  0.31E+00 at ( 43, 30,  1)
       Min divergence: -0.62E-01 at ( 44, 29,  2)
       Max VN number:   0.26E+00 at ( 43, 30,  1)
       Max HRRPUV:  0.18E+03 kW/m^3
       Total Heat Release Rate:             11.752 kW
       Radiation Loss to Boundaries:        -4.065 kW
 
       Time Step      10   February 11, 2016  13:02:05
       Step Size:    0.228E+00 s, Total Time:       2.28 s
       Pressure Iterations:      1
       Maximum Velocity Error:  0.12E-01 on Mesh   1 at (  45  28   2)
       ---------------------------------------------------------------
       Max CFL number:  0.75E+00 at ( 43, 30,  1)
       Max divergence:  0.32E+00 at ( 43, 30,  1)
       Min divergence: -0.70E-01 at ( 44, 29,  2)
       Max VN number:   0.40E+00 at ( 43, 30,  1)
       Max HRRPUV:  0.17E+03 kW/m^3
       Total Heat Release Rate:             12.018 kW
       Radiation Loss to Boundaries:        -4.076 kW
 
       Time Step      20   February 11, 2016  13:02:07
       Step Size:    0.138E+00 s, Total Time:       3.94 s
       Pressure Iterations:      1
       Maximum Velocity Error:  0.22E-01 on Mesh   1 at (  45  28   6)
       ---------------------------------------------------------------
       Max CFL number:  0.98E+00 at ( 44, 29,  5)
       Max divergence:  0.34E+00 at ( 43, 29,  1)
       Min divergence: -0.84E-01 at ( 44, 29,  3)
       Max VN number:   0.34E+00 at ( 44, 29,  5)
       Max HRRPUV:  0.18E+03 kW/m^3
       Total Heat Release Rate:             12.411 kW
       Radiation Loss to Boundaries:        -4.176 kW
 
       Time Step      30   February 11, 2016  13:02:10
       Step Size:    0.998E-01 s, Total Time:       5.13 s
       Pressure Iterations:      1
       Maximum Velocity Error:  0.16E-01 on Mesh   1 at (  45  29   9)
       ---------------------------------------------------------------
       Max CFL number:  0.63E+00 at ( 44, 29,  8)
       Max divergence:  0.33E+00 at ( 44, 29,  1)
       Min divergence: -0.79E-01 at ( 44, 29,  3)
       Max VN number:   0.48E+00 at ( 43, 29, 10)
       Max HRRPUV:  0.18E+03 kW/m^3
       Total Heat Release Rate:             12.242 kW
       Radiation Loss to Boundaries:        -4.115 kW
 
       Time Step      40   February 11, 2016  13:02:12
       Step Size:    0.110E+00 s, Total Time:       6.14 s
       Pressure Iterations:      1
       Maximum Velocity Error:  0.20E-01 on Mesh   1 at (  45  30   9)
       ---------------------------------------------------------------
       Max CFL number:  0.65E+00 at ( 44, 29,  8)
       Max divergence:  0.37E+00 at ( 44, 29,  1)
       Min divergence: -0.11E+00 at ( 44, 29,  3)
       Max VN number:   0.42E+00 at ( 43, 29, 10)
       Max HRRPUV:  0.21E+03 kW/m^3
       Total Heat Release Rate:             12.611 kW
       Radiation Loss to Boundaries:        -4.250 kW
 
       Time Step      50   February 11, 2016  13:02:14
       Step Size:    0.121E+00 s, Total Time:       7.25 s
       Pressure Iterations:      1
       Maximum Velocity Error:  0.29E-01 on Mesh   1 at (  38  26   9)
       ---------------------------------------------------------------
       Max CFL number:  0.80E+00 at ( 44, 29,  6)
       Max divergence:  0.45E+00 at ( 44, 29,  1)
       Min divergence: -0.17E+00 at ( 44, 29,  3)
       Max VN number:   0.43E+00 at ( 43, 28, 10)
       Max HRRPUV:  0.24E+03 kW/m^3
       Total Heat Release Rate:             12.696 kW
       Radiation Loss to Boundaries:        -4.294 kW
 
       Time Step      60   February 11, 2016  13:02:16
       Step Size:    0.121E+00 s, Total Time:       8.46 s
       Pressure Iterations:      1
       Maximum Velocity Error:  0.24E-01 on Mesh   1 at (  33  26   9)
       ---------------------------------------------------------------
       Max CFL number:  0.84E+00 at ( 44, 29,  6)
       Max divergence:  0.35E+00 at ( 44, 29,  1)
       Min divergence: -0.18E+00 at ( 44, 29,  3)
       Max VN number:   0.49E+00 at ( 44, 29, 10)
       Max HRRPUV:  0.24E+03 kW/m^3
       Total Heat Release Rate:             12.501 kW
       Radiation Loss to Boundaries:        -4.227 kW
 
       Time Step      70   February 11, 2016  13:02:18
       Step Size:    0.108E+00 s, Total Time:       9.54 s
       Pressure Iterations:      1
       Maximum Velocity Error:  0.22E-01 on Mesh   1 at (  34  26   8)
       ---------------------------------------------------------------
       Max CFL number:  0.72E+00 at ( 44, 29,  6)
       Max divergence:  0.34E+00 at ( 44, 30,  1)
       Min divergence: -0.17E+00 at ( 44, 29,  3)
       Max VN number:   0.49E+00 at ( 44, 29, 10)
       Max HRRPUV:  0.23E+03 kW/m^3
       Total Heat Release Rate:             12.497 kW
       Radiation Loss to Boundaries:        -4.235 kW
 
       Time Step      80   February 11, 2016  13:02:20
       Step Size:    0.975E-01 s, Total Time:      10.57 s
       Pressure Iterations:      1
       Maximum Velocity Error:  0.92E-02 on Mesh   1 at (  31  26   8)
       ---------------------------------------------------------------
       Max CFL number:  0.64E+00 at ( 44, 29,  7)
       Max divergence:  0.32E+00 at ( 44, 30,  1)
       Min divergence: -0.13E+00 at ( 44, 29,  3)
       Max VN number:   0.45E+00 at ( 44, 29, 10)
       Max HRRPUV:  0.21E+03 kW/m^3
       Total Heat Release Rate:             12.461 kW
       Radiation Loss to Boundaries:        -4.225 kW
 
       Time Step      90   February 11, 2016  13:02:23
       Step Size:    0.975E-01 s, Total Time:      11.55 s
       Pressure Iterations:      1
       Maximum Velocity Error:  0.15E-01 on Mesh   1 at (  45  29   9)
       ---------------------------------------------------------------
       Max CFL number:  0.61E+00 at ( 44, 29,  7)
       Max divergence:  0.33E+00 at ( 44, 30,  1)
       Min divergence: -0.13E+00 at ( 44, 29,  3)
       Max VN number:   0.43E+00 at ( 45, 29,  8)
       Max HRRPUV:  0.22E+03 kW/m^3
       Total Heat Release Rate:             12.500 kW
       Radiation Loss to Boundaries:        -4.251 kW
 
       Time Step     100   February 11, 2016  13:02:26
       Step Size:    0.865E-01 s, Total Time:      12.46 s
       Pressure Iterations:      1
       Maximum Velocity Error:  0.66E-02 on Mesh   1 at (  45  29   9)
       ---------------------------------------------------------------
       Max CFL number:  0.54E+00 at ( 44, 29,  5)
       Max divergence:  0.33E+00 at ( 44, 30,  1)
       Min divergence: -0.16E+00 at ( 44, 29,  3)
       Max VN number:   0.43E+00 at ( 45, 29,  8)
       Max HRRPUV:  0.23E+03 kW/m^3
       Total Heat Release Rate:             12.468 kW
       Radiation Loss to Boundaries:        -4.236 kW
 
       Time Step     200   February 11, 2016  13:02:48
       Step Size:    0.905E-01 s, Total Time:      22.14 s
       Pressure Iterations:      1
       Maximum Velocity Error:  0.36E-02 on Mesh   1 at (  45  30   9)
       ---------------------------------------------------------------
       Max CFL number:  0.58E+00 at ( 45, 29,  5)
       Max divergence:  0.33E+00 at ( 43, 29,  1)
       Min divergence: -0.77E-01 at ( 44, 30,  3)
       Max VN number:   0.47E+00 at ( 45, 29,  8)
       Max HRRPUV:  0.18E+03 kW/m^3
       Total Heat Release Rate:             12.500 kW
       Radiation Loss to Boundaries:        -4.327 kW
 
       Time Step     300   February 11, 2016  13:03:10
       Step Size:    0.108E+00 s, Total Time:      31.99 s
       Pressure Iterations:      1
       Maximum Velocity Error:  0.64E-02 on Mesh   1 at (  45  29   9)
       ---------------------------------------------------------------
       Max CFL number:  0.58E+00 at ( 44, 29,  8)
       Max divergence:  0.34E+00 at ( 43, 29,  1)
       Min divergence: -0.11E+00 at ( 44, 29,  3)
       Max VN number:   0.43E+00 at ( 45, 29,  8)
       Max HRRPUV:  0.20E+03 kW/m^3
       Total Heat Release Rate:             12.684 kW
       Radiation Loss to Boundaries:        -4.434 kW
 
       Time Step     400   February 11, 2016  13:03:33
       Step Size:    0.119E+00 s, Total Time:      42.88 s
       Pressure Iterations:      1
       Maximum Velocity Error:  0.93E-02 on Mesh   1 at (  42  31  11)
       ---------------------------------------------------------------
       Max CFL number:  0.74E+00 at ( 43, 29,  5)
       Max divergence:  0.36E+00 at ( 43, 29,  1)
       Min divergence: -0.11E+00 at ( 43, 29,  3)
       Max VN number:   0.44E+00 at ( 42, 30, 10)
       Max HRRPUV:  0.20E+03 kW/m^3
       Total Heat Release Rate:             12.514 kW
       Radiation Loss to Boundaries:        -4.421 kW
 
       Time Step     500   February 11, 2016  13:03:55
       Step Size:    0.149E+00 s, Total Time:      55.57 s
       Pressure Iterations:      1
       Maximum Velocity Error:  0.11E-01 on Mesh   1 at (  45  28   8)
       ---------------------------------------------------------------
       Max CFL number:  0.75E+00 at ( 43, 28,  7)
       Max divergence:  0.35E+00 at ( 43, 30,  1)
       Min divergence: -0.46E-01 at ( 43, 29,  3)
       Max VN number:   0.41E+00 at ( 43, 29, 10)
       Max HRRPUV:  0.20E+03 kW/m^3
       Total Heat Release Rate:             12.501 kW
       Radiation Loss to Boundaries:        -4.520 kW
 
       Time Step     600   February 11, 2016  13:04:19
       Step Size:    0.163E+00 s, Total Time:      71.23 s
       Pressure Iterations:      1
       Maximum Velocity Error:  0.14E-01 on Mesh   1 at (  43  27  11)
       ---------------------------------------------------------------
       Max CFL number:  0.76E+00 at ( 43, 27,  6)
       Max divergence:  0.36E+00 at ( 43, 29,  1)
       Min divergence: -0.90E-01 at ( 43, 28,  2)
       Max VN number:   0.47E+00 at ( 43, 29,  1)
       Max HRRPUV:  0.24E+03 kW/m^3
       Total Heat Release Rate:             12.557 kW
       Radiation Loss to Boundaries:        -4.594 kW
 
       Time Step     700   February 11, 2016  13:04:42
       Step Size:    0.154E+00 s, Total Time:      86.33 s
       Pressure Iterations:      1
       Maximum Velocity Error:  0.94E-02 on Mesh   1 at (  42  26   5)
       ---------------------------------------------------------------
       Max CFL number:  0.71E+00 at ( 43, 27,  7)
       Max divergence:  0.35E+00 at ( 43, 30,  1)
       Min divergence: -0.44E-01 at ( 43, 28,  3)
       Max VN number:   0.47E+00 at ( 43, 27, 10)
       Max HRRPUV:  0.21E+03 kW/m^3
       Total Heat Release Rate:             12.473 kW
       Radiation Loss to Boundaries:        -4.609 kW
 
       Time Step     800   February 11, 2016  13:05:06
       Step Size:    0.164E+00 s, Total Time:     102.49 s
       Pressure Iterations:      1
       Maximum Velocity Error:  0.13E-01 on Mesh   1 at (  41  28  11)
       ---------------------------------------------------------------
       Max CFL number:  0.79E+00 at ( 41, 28,  7)
       Max divergence:  0.33E+00 at ( 43, 30,  1)
       Min divergence: -0.30E-01 at ( 42, 29,  3)
       Max VN number:   0.42E+00 at ( 42, 29,  1)
       Max HRRPUV:  0.20E+03 kW/m^3
       Total Heat Release Rate:             12.493 kW
       Radiation Loss to Boundaries:        -4.646 kW
 
       Time Step     900   February 11, 2016  13:05:28
       Step Size:    0.167E+00 s, Total Time:     118.80 s
       Pressure Iterations:      1
       Maximum Velocity Error:  0.15E-01 on Mesh   1 at (  41  26   8)
       ---------------------------------------------------------------
       Max CFL number:  0.69E+00 at ( 42, 27,  6)
       Max divergence:  0.35E+00 at ( 43, 30,  1)
       Min divergence: -0.43E-01 at ( 42, 28,  2)
       Max VN number:   0.46E+00 at ( 42, 28,  1)
       Max HRRPUV:  0.18E+03 kW/m^3
       Total Heat Release Rate:             12.512 kW
       Radiation Loss to Boundaries:        -4.704 kW
 
       Time Step     908   February 11, 2016  13:05:30
       Step Size:    0.148E+00 s, Total Time:     120.11 s
       Pressure Iterations:      1
       Maximum Velocity Error:  0.31E-01 on Mesh   1 at (  40  26   7)
       ---------------------------------------------------------------
       Max CFL number:  0.70E+00 at ( 41, 27,  9)
       Max divergence:  0.35E+00 at ( 43, 30,  1)
       Min divergence: -0.43E-01 at ( 42, 28,  2)
       Max VN number:   0.45E+00 at ( 41, 27, 10)
       Max HRRPUV:  0.18E+03 kW/m^3
       Total Heat Release Rate:             12.207 kW
       Radiation Loss to Boundaries:        -4.613 kW
 


 Time Stepping Wall Clock Time (s):      207.450
 Total Elapsed Wall Clock Time (s):      213.171

STOP: FDS completed successfully (CHID: smoke_sensor)
