
 Fire Dynamics Simulator

 Current Date     : March  4, 2016  10:50:16
 Version          : FDS 6.3.2
 Revision         : Git-r5-0-gf5004c4
 Revision Date    : Tue Nov 17 17:14:41 2015 -0500
 Compilation Date : Nov 18, 2015  13:16:16

 MPI Enabled; Number of MPI Processes:     1
 OpenMP Enabled; Number of OpenMP Threads:   4

 MPI version: 3.0
 MPI library version: Open MPI v1.8.4, package: Open MPI gforney@645496 Distribution, ident: 1.8.4, repo rev: v1.8.3-330-g0344f04, Dec 19, 2014

 Job TITLE        : B_walking_speed
 Job ID string    : B_walking_speed


 Grid Dimensions, Mesh     1

   Cells in the X Direction            25
   Cells in the Y Direction            75
   Cells in the Z Direction            30


 Physical Dimensions, Mesh     1

   Length (m)                      10.000
   Width  (m)                      30.000
   Height (m)                       6.000
   Initial Time Step (s)            0.205


 Miscellaneous Parameters

   Simulation Start Time (s)          0.0
   Simulation End Time (s)          120.0
   LES Calculation
   Deardorff Model (C_DEARDORFF)     0.10
   Turbulent Prandtl Number          0.50
   Turbulent Schmidt Number          0.50
   Ambient Temperature (C)          20.00


 Mass Fraction Transformation Matrix to Convert Species Mixtures (Columns) to Primitive Species (Rows)

                         AIR       POLYURET  PRODUCTS
   POLYURETHANE          0.000000  1.000000  0.000000
   OXYGEN                0.232918  0.000000  0.000000
   NITROGEN              0.767082  0.000000  0.689456
   WATER VAPOR           0.000000  0.000000  0.110723
   CARBON MONOXIDE       0.000000  0.000000  0.016709
   CARBON DIOXIDE        0.000000  0.000000  0.174484
   SOOT                  0.000000  0.000000  0.007670
   HYDROGEN CYANIDE      0.000000  0.000000  0.000959


 Primitive Species Information

   POLYURETHANE
   Gas Species
   Molecular Weight (g/mol)           466.61078
   Ambient Density (kg/m^3)           19.398
   Enthalpy of Formation (J/kg)       -1.80E+07

   OXYGEN
   Gas Species
   Molecular Weight (g/mol)            31.99880
   Ambient Density (kg/m^3)            1.330
   Enthalpy of Formation (J/kg)        0.00E+00

   NITROGEN
   Gas Species
   Molecular Weight (g/mol)            28.01340
   Ambient Density (kg/m^3)            1.165
   Enthalpy of Formation (J/kg)        0.00E+00

   WATER VAPOR
   Gas Species
   Molecular Weight (g/mol)            18.01528
   Ambient Density (kg/m^3)            0.749
   Enthalpy of Formation (J/kg)       -1.34E+07

   CARBON MONOXIDE
   Gas Species
   Molecular Weight (g/mol)            28.01010
   Ambient Density (kg/m^3)            1.164
   Enthalpy of Formation (J/kg)       -3.95E+06

   CARBON DIOXIDE
   Gas Species
   Molecular Weight (g/mol)            44.00950
   Ambient Density (kg/m^3)            1.830
   Enthalpy of Formation (J/kg)       -8.94E+06

   SOOT
   Gas Species
   Molecular Weight (g/mol)            12.01070
   Ambient Density (kg/m^3)            0.499
   Enthalpy of Formation (J/kg)        0.00E+00

   HYDROGEN CYANIDE
   Gas Species
   Molecular Weight (g/mol)            27.02534
   Ambient Density (kg/m^3)            1.123
   Enthalpy of Formation (J/kg)        4.92E+06


 Tracked (Lumped) Species Information

   AIR
   Molecular Weight (g/mol)            28.85033
   Ambient Density (kg/m^3)            1.199
   Initial Mass Fraction               1.000
   Enthalpy of Formation (J/kg)      0.00E+00

   Sub Species                    Mass Fraction     Mole Fraction
   OXYGEN                         2.329175E-01      2.100000E-01
   NITROGEN                       7.670825E-01      7.900000E-01
 
   Viscosity (kg/m/s)   Ambient (293 K):  1.80E-05
                                  500 K:  2.62E-05
                                 1000 K:  4.13E-05
                                 1500 K:  5.37E-05
   Therm. Cond. (W/m/K) Ambient (293 K):  2.56E-02
                                  500 K:  3.82E-02
                                 1000 K:  6.67E-02
                                 1500 K:  9.22E-02
   Spec. Heat (J/kg/K)  Ambient (293 K):  1.01E+03
                                  500 K:  1.04E+03
                                 1000 K:  1.15E+03
                                 1500 K:  1.22E+03
   Diff. Coeff. (m^2/s) Ambient (293 K):  1.99E-05
                                  500 K:  4.95E-05
                                 1000 K:  1.58E-04
                                 1500 K:  3.09E-04

   POLYURETHANE
   Molecular Weight (g/mol)           466.61078
   Ambient Density (kg/m^3)           19.398
   Initial Mass Fraction               0.000
   Enthalpy of Formation (J/kg)     -3.92E+06

   Sub Species                    Mass Fraction     Mole Fraction
   POLYURETHANE                   1.000000E+00      1.000000E+00
 
   Viscosity (kg/m/s)   Ambient (293 K):  7.28E-05
                                  500 K:  1.06E-04
                                 1000 K:  1.66E-04
                                 1500 K:  2.16E-04
   Therm. Cond. (W/m/K) Ambient (293 K):  9.08E-03
                                  500 K:  1.32E-02
                                 1000 K:  2.08E-02
                                 1500 K:  2.70E-02
   Spec. Heat (J/kg/K)  Ambient (293 K):  6.24E+01
                                  500 K:  6.24E+01
                                 1000 K:  6.24E+01
                                 1500 K:  6.24E+01
   Diff. Coeff. (m^2/s) Ambient (293 K):  1.46E-05
                                  500 K:  3.64E-05
                                 1000 K:  1.16E-04
                                 1500 K:  2.27E-04

   PRODUCTS_1
   Molecular Weight (g/mol)            27.78320
   Ambient Density (kg/m^3)            1.155
   Initial Mass Fraction               0.000
   Enthalpy of Formation (J/kg)     -3.11E+06

   Sub Species                    Mass Fraction     Mole Fraction
   NITROGEN                       6.894557E-01      6.837901E-01
   WATER VAPOR                    1.107234E-01      1.707579E-01
   CARBON MONOXIDE                1.670880E-02      1.657345E-02
   CARBON DIOXIDE                 1.744838E-01      1.101516E-01
   SOOT                           7.669613E-03      1.774138E-02
   HYDROGEN CYANIDE               9.587038E-04      9.855883E-04
 
   Viscosity (kg/m/s)   Ambient (293 K):  1.60E-05
                                  500 K:  2.38E-05
                                 1000 K:  3.88E-05
                                 1500 K:  5.13E-05
   Therm. Cond. (W/m/K) Ambient (293 K):  2.33E-02
                                  500 K:  3.62E-02
                                 1000 K:  6.76E-02
                                 1500 K:  9.72E-02
   Spec. Heat (J/kg/K)  Ambient (293 K):  1.09E+03
                                  500 K:  1.15E+03
                                 1000 K:  1.31E+03
                                 1500 K:  1.42E+03
   Diff. Coeff. (m^2/s) Ambient (293 K):  1.96E-05
                                  500 K:  4.99E-05
                                 1000 K:  1.61E-04
                                 1500 K:  3.17E-04


 Gas Phase Reaction Information

   Reaction ID:  plastic

   Fuel                                           Heat of Combustion (kJ/kg)
   POLYURETHANE                                                   18770.0000

   Stoichiometry

   Primitive Species
   Species ID                                                 Stoich. Coeff.
   POLYURETHANE                                                    -1.000000
   OXYGEN                                                         -21.993550
   NITROGEN                                                         1.113670
   WATER VAPOR                                                     20.939570
   CARBON MONOXIDE                                                  2.032357
   CARBON DIOXIDE                                                  13.507590
   SOOT                                                             2.175577
   HYDROGEN CYANIDE                                                 0.120860

   Tracked (Lumped) Species
   Species ID                                                 Stoich. Coeff.
   AIR                                                           -104.731190
   POLYURETHANE                                                    -1.000000
   PRODUCTS_1                                                     122.627264

   Reaction Kinetics

   Arrhenius Parameters
   Pre-exponential:    Infinite
   Activation Energy:  N/A

   ODE Solver:  EXPLICIT EULER


 Material Information


 Surface Conditions

   0 INERT (DEFAULT)

   1 FIRE
     POLYURETHANE Mass Flux (kg/s/m2)   5.26E-03

   2 OPEN
     Passive Vent to Atmosphere

   3 MIRROR
     Symmetry Plane

   4 INTERPOLATED

   5 PERIODIC

   6 HVAC

   7 MASSLESS TRACER

   8 DROPLET

   9 VEGETATION

  10 EVACUATION_OUTFLOW
     Normal Velocity (m/s)         0.000

  11 MASSLESS TARGET


 Slice File Information, Mesh     1

   Sampling Interval (s)             0.120

   1 Nodes:   0  25   0  75   9   9, Quantity: SOOT EXTINCTION COEFFICIENT
   2 Nodes:   0  25   0  75  24  24, Quantity: SOOT EXTINCTION COEFFICIENT


 Radiation Model Information

   Number of control angles  104
   Time step increment         3
   Angle increment             5
   Theta band N_phi   Solid angle
     1:        4  0.12
     2:       12  0.11
     3:       16  0.13
     4:       20  0.12
     5:       20  0.12
     6:       16  0.13
     7:       12  0.11
     8:        4  0.12
   Using gray gas absorption.
   Mean beam length  1.587 m
 
 

 Run Time Diagnostics

       Time Step       1   March  4, 2016  10:50:17
       Step Size:    0.205E+00 s, Total Time:       0.20 s
       Pressure Iterations:      1
       Maximum Velocity Error:  0.23E-02 on Mesh   1 at (  22  30  14)
       ---------------------------------------------------------------
       Max CFL number:  0.15E-01 at (  7,  5, 10)
       Max divergence:  0.85E-01 at ( 15, 15,  1)
       Min divergence: -0.15E-04 at ( 15, 14,  2)
       Max VN number:   0.14E-01 at ( 17, 62, 10)
       Max HRRPUV:  0.46E+02 kW/m^3
       Total Heat Release Rate:              5.716 kW
       Radiation Loss to Boundaries:        -1.990 kW
 
       Time Step       2   March  4, 2016  10:50:17
       Step Size:    0.205E+00 s, Total Time:       0.41 s
       Pressure Iterations:      1
       Maximum Velocity Error:  0.18E-02 on Mesh   1 at (  12  12  14)
       ---------------------------------------------------------------
       Max CFL number:  0.36E-01 at ( 14, 14,  1)
       Max divergence:  0.28E+00 at ( 14, 15,  1)
       Min divergence: -0.34E-04 at ( 13, 13, 20)
       Max VN number:   0.14E-01 at ( 17, 62, 10)
       Max HRRPUV:  0.15E+03 kW/m^3
       Total Heat Release Rate:             18.908 kW
       Radiation Loss to Boundaries:        -6.608 kW
 
       Time Step       3   March  4, 2016  10:50:17
       Step Size:    0.205E+00 s, Total Time:       0.61 s
       Pressure Iterations:      1
       Maximum Velocity Error:  0.14E-02 on Mesh   1 at (  14  13  14)
       ---------------------------------------------------------------
       Max CFL number:  0.10E+00 at ( 14, 14,  1)
       Max divergence:  0.49E+00 at ( 14, 14,  1)
       Min divergence: -0.57E-02 at ( 14, 14,  2)
       Max VN number:   0.14E-01 at ( 14, 15,  2)
       Max HRRPUV:  0.26E+03 kW/m^3
       Total Heat Release Rate:             33.910 kW
       Radiation Loss to Boundaries:       -11.863 kW
 
       Time Step       4   March  4, 2016  10:50:18
       Step Size:    0.205E+00 s, Total Time:       0.82 s
       Pressure Iterations:      1
       Maximum Velocity Error:  0.10E-02 on Mesh   1 at (  15  13  14)
       ---------------------------------------------------------------
       Max CFL number:  0.19E+00 at ( 14, 14,  1)
       Max divergence:  0.70E+00 at ( 14, 14,  1)
       Min divergence: -0.83E-02 at ( 14, 14,  2)
       Max VN number:   0.25E-01 at ( 14, 15,  2)
       Max HRRPUV:  0.37E+03 kW/m^3
       Total Heat Release Rate:             48.505 kW
       Radiation Loss to Boundaries:       -16.809 kW
 
       Time Step       5   March  4, 2016  10:50:18
       Step Size:    0.205E+00 s, Total Time:       1.02 s
       Pressure Iterations:      1
       Maximum Velocity Error:  0.84E-03 on Mesh   1 at (  17  12  15)
       ---------------------------------------------------------------
       Max CFL number:  0.31E+00 at ( 14, 14,  1)
       Max divergence:  0.85E+00 at ( 15, 15,  1)
       Min divergence: -0.11E-03 at ( 18,  6, 28)
       Max VN number:   0.43E-01 at ( 14, 15,  2)
       Max HRRPUV:  0.47E+03 kW/m^3
       Total Heat Release Rate:             61.263 kW
       Radiation Loss to Boundaries:       -21.436 kW
 
       Time Step       6   March  4, 2016  10:50:18
       Step Size:    0.205E+00 s, Total Time:       1.23 s
       Pressure Iterations:      1
       Maximum Velocity Error:  0.64E-03 on Mesh   1 at (  17   5  15)
       ---------------------------------------------------------------
       Max CFL number:  0.46E+00 at ( 14, 14,  1)
       Max divergence:  0.94E+00 at ( 14, 14,  1)
       Min divergence: -0.12E-03 at ( 18,  6, 28)
       Max VN number:   0.76E-01 at ( 14, 15,  2)
       Max HRRPUV:  0.55E+03 kW/m^3
       Total Heat Release Rate:             71.499 kW
       Radiation Loss to Boundaries:       -25.004 kW
 
       Time Step       7   March  4, 2016  10:50:19
       Step Size:    0.205E+00 s, Total Time:       1.43 s
       Pressure Iterations:      1
       Maximum Velocity Error:  0.62E-03 on Mesh   1 at (  25   4  14)
       ---------------------------------------------------------------
       Max CFL number:  0.66E+00 at ( 14, 14,  1)
       Max divergence:  0.10E+01 at ( 14, 14,  1)
       Min divergence: -0.34E-01 at ( 14, 14,  2)
       Max VN number:   0.14E+00 at ( 14, 14,  2)
       Max HRRPUV:  0.60E+03 kW/m^3
       Total Heat Release Rate:             79.360 kW
       Radiation Loss to Boundaries:       -26.985 kW
 
       Time Step       8   March  4, 2016  10:50:19
       Step Size:    0.205E+00 s, Total Time:       1.64 s
       Pressure Iterations:      1
       Maximum Velocity Error:  0.77E-03 on Mesh   1 at (  15  14  14)
       ---------------------------------------------------------------
       Max CFL number:  0.95E+00 at ( 14, 14,  1)
       Max divergence:  0.10E+01 at ( 14, 14,  1)
       Min divergence: -0.89E-01 at ( 15, 15,  2)
       Max VN number:   0.32E+00 at ( 14, 15,  1)
       Max HRRPUV:  0.60E+03 kW/m^3
       Total Heat Release Rate:             85.195 kW
       Radiation Loss to Boundaries:       -29.805 kW
 
       Time Step       9   March  4, 2016  10:50:20
       Step Size:    0.155E+00 s, Total Time:       1.79 s
       Pressure Iterations:      1
       Maximum Velocity Error:  0.14E-02 on Mesh   1 at (  14  14  14)
       ---------------------------------------------------------------
       Max CFL number:  0.86E+00 at ( 15, 15,  1)
       Max divergence:  0.14E+01 at ( 15, 15,  1)
       Min divergence: -0.21E+00 at ( 14, 14,  3)
       Max VN number:   0.44E+00 at ( 14, 14,  1)
       Max HRRPUV:  0.65E+03 kW/m^3
       Total Heat Release Rate:             97.645 kW
       Radiation Loss to Boundaries:       -34.124 kW
 
       Time Step      10   March  4, 2016  10:50:20
       Step Size:    0.112E+00 s, Total Time:       1.91 s
       Pressure Iterations:      1
       Maximum Velocity Error:  0.12E-02 on Mesh   1 at (  15  15  14)
       ---------------------------------------------------------------
       Max CFL number:  0.68E+00 at ( 15, 15,  1)
       Max divergence:  0.12E+01 at ( 15, 14,  1)
       Min divergence: -0.26E+00 at ( 14, 14,  3)
       Max VN number:   0.45E+00 at ( 14, 14,  1)
       Max HRRPUV:  0.60E+03 kW/m^3
       Total Heat Release Rate:             95.106 kW
       Radiation Loss to Boundaries:       -32.372 kW
 
       Time Step      20   March  4, 2016  10:50:24
       Step Size:    0.736E-01 s, Total Time:       2.84 s
       Pressure Iterations:      1
       Maximum Velocity Error:  0.53E-02 on Mesh   1 at (  14  14  14)
       ---------------------------------------------------------------
       Max CFL number:  0.89E+00 at ( 15, 14,  6)
       Max divergence:  0.11E+01 at ( 14, 15,  1)
       Min divergence: -0.13E+00 at ( 15, 15,  7)
       Max VN number:   0.25E+00 at ( 14, 15,  6)
       Max HRRPUV:  0.51E+03 kW/m^3
       Total Heat Release Rate:             89.821 kW
       Radiation Loss to Boundaries:       -31.316 kW
 
       Time Step      30   March  4, 2016  10:50:28
       Step Size:    0.652E-01 s, Total Time:       3.51 s
       Pressure Iterations:      1
       Maximum Velocity Error:  0.50E-01 on Mesh   1 at (  14  15  14)
       ---------------------------------------------------------------
       Max CFL number:  0.10E+01 at ( 15, 14, 10)
       Max divergence:  0.11E+01 at ( 15, 14,  1)
       Min divergence: -0.11E+00 at ( 15, 15, 12)
       Max VN number:   0.32E+00 at ( 15, 15, 13)
       Max HRRPUV:  0.56E+03 kW/m^3
       Total Heat Release Rate:            101.502 kW
       Radiation Loss to Boundaries:       -34.850 kW
 
       Time Step      40   March  4, 2016  10:50:32
       Step Size:    0.428E-01 s, Total Time:       4.00 s
       Pressure Iterations:      1
       Maximum Velocity Error:  0.19E-01 on Mesh   1 at (  15  14  14)
       ---------------------------------------------------------------
       Max CFL number:  0.51E+00 at ( 15, 15,  9)
       Max divergence:  0.11E+01 at ( 15, 15,  1)
       Min divergence: -0.66E-01 at ( 15, 15,  5)
       Max VN number:   0.43E+00 at ( 15, 15, 13)
       Max HRRPUV:  0.53E+03 kW/m^3
       Total Heat Release Rate:             96.008 kW
       Radiation Loss to Boundaries:       -33.151 kW
 
       Time Step      50   March  4, 2016  10:50:35
       Step Size:    0.626E-01 s, Total Time:       4.53 s
       Pressure Iterations:      1
       Maximum Velocity Error:  0.20E-01 on Mesh   1 at (  14  15  14)
       ---------------------------------------------------------------
       Max CFL number:  0.75E+00 at ( 15, 14, 10)
       Max divergence:  0.11E+01 at ( 15, 15,  1)
       Min divergence: -0.64E-01 at ( 14, 15,  5)
       Max VN number:   0.46E+00 at ( 14, 15, 13)
       Max HRRPUV:  0.55E+03 kW/m^3
       Total Heat Release Rate:            100.425 kW
       Radiation Loss to Boundaries:       -34.773 kW
 
       Time Step      60   March  4, 2016  10:50:38
       Step Size:    0.556E-01 s, Total Time:       5.10 s
       Pressure Iterations:      1
       Maximum Velocity Error:  0.63E-02 on Mesh   1 at (  18  11  14)
       ---------------------------------------------------------------
       Max CFL number:  0.62E+00 at ( 14, 15,  9)
       Max divergence:  0.11E+01 at ( 14, 14,  1)
       Min divergence: -0.83E-01 at ( 14, 15,  5)
       Max VN number:   0.39E+00 at ( 14, 15, 13)
       Max HRRPUV:  0.54E+03 kW/m^3
       Total Heat Release Rate:             99.075 kW
       Radiation Loss to Boundaries:       -34.292 kW
 
       Time Step      70   March  4, 2016  10:50:42
       Step Size:    0.611E-01 s, Total Time:       5.71 s
       Pressure Iterations:      1
       Maximum Velocity Error:  0.54E-02 on Mesh   1 at (  19  10  14)
       ---------------------------------------------------------------
       Max CFL number:  0.66E+00 at ( 14, 15,  9)
       Max divergence:  0.11E+01 at ( 14, 15,  1)
       Min divergence: -0.90E-01 at ( 14, 15,  6)
       Max VN number:   0.47E+00 at ( 14, 15, 13)
       Max HRRPUV:  0.54E+03 kW/m^3
       Total Heat Release Rate:             98.869 kW
       Radiation Loss to Boundaries:       -34.152 kW
 
       Time Step      80   March  4, 2016  10:50:45
       Step Size:    0.611E-01 s, Total Time:       6.33 s
       Pressure Iterations:      1
       Maximum Velocity Error:  0.43E-02 on Mesh   1 at (  17  12  14)
       ---------------------------------------------------------------
       Max CFL number:  0.64E+00 at ( 14, 15, 10)
       Max divergence:  0.11E+01 at ( 14, 15,  1)
       Min divergence: -0.86E-01 at ( 14, 15,  5)
       Max VN number:   0.47E+00 at ( 14, 15, 13)
       Max HRRPUV:  0.54E+03 kW/m^3
       Total Heat Release Rate:             99.091 kW
       Radiation Loss to Boundaries:       -34.312 kW
 
       Time Step      90   March  4, 2016  10:50:48
       Step Size:    0.611E-01 s, Total Time:       6.94 s
       Pressure Iterations:      1
       Maximum Velocity Error:  0.37E-02 on Mesh   1 at (  19  13  14)
       ---------------------------------------------------------------
       Max CFL number:  0.66E+00 at ( 14, 15,  9)
       Max divergence:  0.10E+01 at ( 14, 15,  1)
       Min divergence: -0.79E-01 at ( 14, 15,  7)
       Max VN number:   0.47E+00 at ( 14, 15, 13)
       Max HRRPUV:  0.54E+03 kW/m^3
       Total Heat Release Rate:             98.568 kW
       Radiation Loss to Boundaries:       -34.025 kW
 
       Time Step     100   March  4, 2016  10:50:51
       Step Size:    0.611E-01 s, Total Time:       7.55 s
       Pressure Iterations:      1
       Maximum Velocity Error:  0.32E-02 on Mesh   1 at (  17  12  14)
       ---------------------------------------------------------------
       Max CFL number:  0.65E+00 at ( 14, 15, 10)
       Max divergence:  0.11E+01 at ( 14, 15,  1)
       Min divergence: -0.85E-01 at ( 14, 15,  5)
       Max VN number:   0.48E+00 at ( 14, 15, 13)
       Max HRRPUV:  0.54E+03 kW/m^3
       Total Heat Release Rate:             99.099 kW
       Radiation Loss to Boundaries:       -34.300 kW
 
       Time Step     200   March  4, 2016  10:51:25
       Step Size:    0.611E-01 s, Total Time:      13.66 s
       Pressure Iterations:      1
       Maximum Velocity Error:  0.12E-02 on Mesh   1 at (   9  17  14)
       ---------------------------------------------------------------
       Max CFL number:  0.66E+00 at ( 15, 14,  9)
       Max divergence:  0.11E+01 at ( 15, 14,  1)
       Min divergence: -0.85E-01 at ( 15, 14,  5)
       Max VN number:   0.48E+00 at ( 15, 14, 13)
       Max HRRPUV:  0.55E+03 kW/m^3
       Total Heat Release Rate:             98.756 kW
       Radiation Loss to Boundaries:       -34.229 kW
 
       Time Step     300   March  4, 2016  10:52:06
       Step Size:    0.611E-01 s, Total Time:      19.77 s
       Pressure Iterations:      1
       Maximum Velocity Error:  0.72E-03 on Mesh   1 at (  17   8  14)
       ---------------------------------------------------------------
       Max CFL number:  0.67E+00 at ( 15, 14,  9)
       Max divergence:  0.11E+01 at ( 15, 14,  1)
       Min divergence: -0.86E-01 at ( 15, 14,  7)
       Max VN number:   0.49E+00 at ( 15, 14, 13)
       Max HRRPUV:  0.55E+03 kW/m^3
       Total Heat Release Rate:             98.726 kW
       Radiation Loss to Boundaries:       -34.276 kW
 
       Time Step     400   March  4, 2016  10:52:41
       Step Size:    0.549E-01 s, Total Time:      25.57 s
       Pressure Iterations:      1
       Maximum Velocity Error:  0.95E-03 on Mesh   1 at (  15  14  14)
       ---------------------------------------------------------------
       Max CFL number:  0.64E+00 at ( 15, 14, 10)
       Max divergence:  0.11E+01 at ( 15, 14,  1)
       Min divergence: -0.10E+00 at ( 15, 14,  7)
       Max VN number:   0.47E+00 at ( 15, 14, 13)
       Max HRRPUV:  0.56E+03 kW/m^3
       Total Heat Release Rate:             98.752 kW
       Radiation Loss to Boundaries:       -34.411 kW
 
       Time Step     500   March  4, 2016  10:53:13
       Step Size:    0.494E-01 s, Total Time:      30.92 s
       Pressure Iterations:      1
       Maximum Velocity Error:  0.11E-02 on Mesh   1 at (  14  14  14)
       ---------------------------------------------------------------
       Max CFL number:  0.60E+00 at ( 15, 15, 10)
       Max divergence:  0.11E+01 at ( 15, 14,  1)
       Min divergence: -0.13E+00 at ( 15, 15,  5)
       Max VN number:   0.44E+00 at ( 15, 15, 13)
       Max HRRPUV:  0.58E+03 kW/m^3
       Total Heat Release Rate:             99.006 kW
       Radiation Loss to Boundaries:       -34.606 kW
 
       Time Step     600   March  4, 2016  10:53:46
       Step Size:    0.444E-01 s, Total Time:      35.71 s
       Pressure Iterations:      1
       Maximum Velocity Error:  0.24E-02 on Mesh   1 at (  15  15  14)
       ---------------------------------------------------------------
       Max CFL number:  0.66E+00 at ( 15, 14, 10)
       Max divergence:  0.11E+01 at ( 15, 14,  1)
       Min divergence: -0.23E+00 at ( 15, 14,  5)
       Max VN number:   0.49E+00 at ( 15, 14, 13)
       Max HRRPUV:  0.68E+03 kW/m^3
       Total Heat Release Rate:             98.884 kW
       Radiation Loss to Boundaries:       -34.619 kW
 
       Time Step     700   March  4, 2016  10:54:17
       Step Size:    0.444E-01 s, Total Time:      40.15 s
       Pressure Iterations:      1
       Maximum Velocity Error:  0.29E-02 on Mesh   1 at (  14  14  14)
       ---------------------------------------------------------------
       Max CFL number:  0.67E+00 at ( 15, 14, 10)
       Max divergence:  0.12E+01 at ( 15, 14,  1)
       Min divergence: -0.26E+00 at ( 15, 14,  5)
       Max VN number:   0.47E+00 at ( 15, 14, 13)
       Max HRRPUV:  0.70E+03 kW/m^3
       Total Heat Release Rate:             99.249 kW
       Radiation Loss to Boundaries:       -34.846 kW
 
       Time Step     800   March  4, 2016  10:54:47
       Step Size:    0.537E-01 s, Total Time:      44.95 s
       Pressure Iterations:      1
       Maximum Velocity Error:  0.29E-02 on Mesh   1 at (  14  13  14)
       ---------------------------------------------------------------
       Max CFL number:  0.68E+00 at ( 15, 14,  8)
       Max divergence:  0.12E+01 at ( 15, 14,  1)
       Min divergence: -0.21E+00 at ( 15, 14,  5)
       Max VN number:   0.49E+00 at ( 15, 14, 13)
       Max HRRPUV:  0.68E+03 kW/m^3
       Total Heat Release Rate:             99.229 kW
       Radiation Loss to Boundaries:       -35.063 kW
 
       Time Step     900   March  4, 2016  10:55:23
       Step Size:    0.524E-01 s, Total Time:      49.68 s
       Pressure Iterations:      1
       Maximum Velocity Error:  0.42E-02 on Mesh   1 at (  14  13  14)
       ---------------------------------------------------------------
       Max CFL number:  0.68E+00 at ( 15, 14,  8)
       Max divergence:  0.11E+01 at ( 14, 14,  1)
       Min divergence: -0.18E+00 at ( 15, 14,  7)
       Max VN number:   0.48E+00 at ( 15, 14, 13)
       Max HRRPUV:  0.65E+03 kW/m^3
       Total Heat Release Rate:             98.648 kW
       Radiation Loss to Boundaries:       -35.043 kW
 
       Time Step    1000   March  4, 2016  10:55:59
       Step Size:    0.464E-01 s, Total Time:      54.15 s
       Pressure Iterations:      1
       Maximum Velocity Error:  0.23E-02 on Mesh   1 at (  14  13  14)
       ---------------------------------------------------------------
       Max CFL number:  0.59E+00 at ( 15, 14,  8)
       Max divergence:  0.11E+01 at ( 15, 15,  1)
       Min divergence: -0.17E+00 at ( 15, 14,  6)
       Max VN number:   0.43E+00 at ( 15, 14, 13)
       Max HRRPUV:  0.64E+03 kW/m^3
       Total Heat Release Rate:             98.332 kW
       Radiation Loss to Boundaries:       -35.104 kW
 
       Time Step    1100   March  4, 2016  10:56:31
       Step Size:    0.418E-01 s, Total Time:      58.55 s
       Pressure Iterations:      1
       Maximum Velocity Error:  0.21E-02 on Mesh   1 at (  15  13  14)
       ---------------------------------------------------------------
       Max CFL number:  0.58E+00 at ( 15, 14,  9)
       Max divergence:  0.11E+01 at ( 14, 14,  1)
       Min divergence: -0.20E+00 at ( 15, 14,  7)
       Max VN number:   0.43E+00 at ( 15, 14, 13)
       Max HRRPUV:  0.68E+03 kW/m^3
       Total Heat Release Rate:             98.857 kW
       Radiation Loss to Boundaries:       -35.415 kW
 
       Time Step    1200   March  4, 2016  10:57:03
       Step Size:    0.418E-01 s, Total Time:      62.73 s
       Pressure Iterations:      1
       Maximum Velocity Error:  0.15E-02 on Mesh   1 at (  15  13  14)
       ---------------------------------------------------------------
       Max CFL number:  0.60E+00 at ( 15, 14, 10)
       Max divergence:  0.11E+01 at ( 14, 14,  1)
       Min divergence: -0.24E+00 at ( 15, 14,  5)
       Max VN number:   0.45E+00 at ( 15, 14, 13)
       Max HRRPUV:  0.69E+03 kW/m^3
       Total Heat Release Rate:             99.000 kW
       Radiation Loss to Boundaries:       -35.571 kW
 
       Time Step    1300   March  4, 2016  10:57:38
       Step Size:    0.459E-01 s, Total Time:      66.99 s
       Pressure Iterations:      1
       Maximum Velocity Error:  0.97E-03 on Mesh   1 at (  14  13  14)
       ---------------------------------------------------------------
       Max CFL number:  0.59E+00 at ( 15, 14,  8)
       Max divergence:  0.11E+01 at ( 15, 15,  1)
       Min divergence: -0.17E+00 at ( 15, 14,  5)
       Max VN number:   0.43E+00 at ( 15, 14, 13)
       Max HRRPUV:  0.65E+03 kW/m^3
       Total Heat Release Rate:             98.926 kW
       Radiation Loss to Boundaries:       -35.691 kW
 
       Time Step    1400   March  4, 2016  10:58:10
       Step Size:    0.459E-01 s, Total Time:      71.58 s
       Pressure Iterations:      1
       Maximum Velocity Error:  0.94E-03 on Mesh   1 at (  15  14  14)
       ---------------------------------------------------------------
       Max CFL number:  0.59E+00 at ( 15, 14,  8)
       Max divergence:  0.11E+01 at ( 14, 15,  1)
       Min divergence: -0.16E+00 at ( 15, 14,  5)
       Max VN number:   0.44E+00 at ( 15, 14, 13)
       Max HRRPUV:  0.66E+03 kW/m^3
       Total Heat Release Rate:             98.825 kW
       Radiation Loss to Boundaries:       -35.787 kW
 
       Time Step    1500   March  4, 2016  10:58:45
       Step Size:    0.459E-01 s, Total Time:      76.17 s
       Pressure Iterations:      1
       Maximum Velocity Error:  0.70E-03 on Mesh   1 at (  15  14  14)
       ---------------------------------------------------------------
       Max CFL number:  0.60E+00 at ( 15, 14,  8)
       Max divergence:  0.11E+01 at ( 14, 14,  1)
       Min divergence: -0.19E+00 at ( 15, 14,  5)
       Max VN number:   0.42E+00 at ( 15, 14, 13)
       Max HRRPUV:  0.66E+03 kW/m^3
       Total Heat Release Rate:             98.945 kW
       Radiation Loss to Boundaries:       -35.980 kW
 
       Time Step    1600   March  4, 2016  10:59:17
       Step Size:    0.413E-01 s, Total Time:      80.73 s
       Pressure Iterations:      1
       Maximum Velocity Error:  0.15E-02 on Mesh   1 at (  15  13  14)
       ---------------------------------------------------------------
       Max CFL number:  0.61E+00 at ( 15, 14, 10)
       Max divergence:  0.11E+01 at ( 14, 14,  1)
       Min divergence: -0.23E+00 at ( 15, 14,  5)
       Max VN number:   0.46E+00 at ( 15, 14, 13)
       Max HRRPUV:  0.69E+03 kW/m^3
       Total Heat Release Rate:             97.463 kW
       Radiation Loss to Boundaries:       -35.578 kW
 
       Time Step    1700   March  4, 2016  10:59:51
       Step Size:    0.413E-01 s, Total Time:      84.86 s
       Pressure Iterations:      1
       Maximum Velocity Error:  0.10E-02 on Mesh   1 at (  15  14  14)
       ---------------------------------------------------------------
       Max CFL number:  0.59E+00 at ( 15, 14, 10)
       Max divergence:  0.11E+01 at ( 14, 14,  1)
       Min divergence: -0.23E+00 at ( 15, 14,  5)
       Max VN number:   0.43E+00 at ( 15, 14, 13)
       Max HRRPUV:  0.70E+03 kW/m^3
       Total Heat Release Rate:             98.979 kW
       Radiation Loss to Boundaries:       -36.244 kW
 
       Time Step    1800   March  4, 2016  11:00:22
       Step Size:    0.413E-01 s, Total Time:      88.99 s
       Pressure Iterations:      1
       Maximum Velocity Error:  0.73E-03 on Mesh   1 at (  15  13  14)
       ---------------------------------------------------------------
       Max CFL number:  0.55E+00 at ( 15, 14,  9)
       Max divergence:  0.11E+01 at ( 14, 14,  1)
       Min divergence: -0.18E+00 at ( 15, 14,  4)
       Max VN number:   0.40E+00 at ( 15, 14, 13)
       Max HRRPUV:  0.68E+03 kW/m^3
       Total Heat Release Rate:             98.831 kW
       Radiation Loss to Boundaries:       -36.294 kW
 
       Time Step    1900   March  4, 2016  11:00:54
       Step Size:    0.500E-01 s, Total Time:      93.58 s
       Pressure Iterations:      1
       Maximum Velocity Error:  0.42E-02 on Mesh   1 at (  15  14  14)
       ---------------------------------------------------------------
       Max CFL number:  0.61E+00 at ( 15, 14,  8)
       Max divergence:  0.11E+01 at ( 15, 15,  1)
       Min divergence: -0.19E+00 at ( 15, 14,  4)
       Max VN number:   0.43E+00 at ( 15, 14, 13)
       Max HRRPUV:  0.79E+03 kW/m^3
       Total Heat Release Rate:             98.625 kW
       Radiation Loss to Boundaries:       -36.370 kW
 
       Time Step    2000   March  4, 2016  11:01:26
       Step Size:    0.450E-01 s, Total Time:      98.48 s
       Pressure Iterations:      1
       Maximum Velocity Error:  0.62E-02 on Mesh   1 at (  15  14  14)
       ---------------------------------------------------------------
       Max CFL number:  0.68E+00 at ( 15, 14,  8)
       Max divergence:  0.11E+01 at ( 14, 14,  1)
       Min divergence: -0.26E+00 at ( 15, 14,  7)
       Max VN number:   0.44E+00 at ( 15, 14, 13)
       Max HRRPUV:  0.76E+03 kW/m^3
       Total Heat Release Rate:             99.198 kW
       Radiation Loss to Boundaries:       -36.605 kW
 
       Time Step    2100   March  4, 2016  11:01:58
       Step Size:    0.471E-01 s, Total Time:     103.23 s
       Pressure Iterations:      1
       Maximum Velocity Error:  0.16E-02 on Mesh   1 at (  14  13  14)
       ---------------------------------------------------------------
       Max CFL number:  0.57E+00 at ( 15, 14,  9)
       Max divergence:  0.12E+01 at ( 15, 15,  1)
       Min divergence: -0.17E+00 at ( 15, 14,  3)
       Max VN number:   0.41E+00 at ( 15, 14, 13)
       Max HRRPUV:  0.64E+03 kW/m^3
       Total Heat Release Rate:             99.769 kW
       Radiation Loss to Boundaries:       -37.023 kW
 
       Time Step    2200   March  4, 2016  11:02:29
       Step Size:    0.570E-01 s, Total Time:     108.20 s
       Pressure Iterations:      1
       Maximum Velocity Error:  0.29E-02 on Mesh   1 at (  14  13  14)
       ---------------------------------------------------------------
       Max CFL number:  0.60E+00 at ( 14, 14,  8)
       Max divergence:  0.10E+01 at ( 14, 14,  1)
       Min divergence: -0.12E+00 at ( 14, 14,  5)
       Max VN number:   0.41E+00 at ( 14, 14, 13)
       Max HRRPUV:  0.71E+03 kW/m^3
       Total Heat Release Rate:             98.516 kW
       Radiation Loss to Boundaries:       -36.752 kW
 
       Time Step    2300   March  4, 2016  11:03:00
       Step Size:    0.513E-01 s, Total Time:     113.61 s
       Pressure Iterations:      1
       Maximum Velocity Error:  0.12E-02 on Mesh   1 at (  14  15  14)
       ---------------------------------------------------------------
       Max CFL number:  0.65E+00 at ( 15, 14,  8)
       Max divergence:  0.12E+01 at ( 15, 15,  1)
       Min divergence: -0.22E+00 at ( 15, 14,  5)
       Max VN number:   0.46E+00 at ( 15, 14, 13)
       Max HRRPUV:  0.68E+03 kW/m^3
       Total Heat Release Rate:             98.204 kW
       Radiation Loss to Boundaries:       -36.823 kW
 
       Time Step    2400   March  4, 2016  11:03:35
       Step Size:    0.454E-01 s, Total Time:     118.57 s
       Pressure Iterations:      1
       Maximum Velocity Error:  0.31E-02 on Mesh   1 at (  15  13  14)
       ---------------------------------------------------------------
       Max CFL number:  0.58E+00 at ( 15, 14,  8)
       Max divergence:  0.11E+01 at ( 15, 15,  1)
       Min divergence: -0.18E+00 at ( 15, 14,  5)
       Max VN number:   0.41E+00 at ( 15, 14, 13)
       Max HRRPUV:  0.70E+03 kW/m^3
       Total Heat Release Rate:             98.418 kW
       Radiation Loss to Boundaries:       -36.996 kW
 
       Time Step    2430   March  4, 2016  11:03:44
       Step Size:    0.499E-01 s, Total Time:     120.05 s
       Pressure Iterations:      1
       Maximum Velocity Error:  0.32E-02 on Mesh   1 at (  14  15  14)
       ---------------------------------------------------------------
       Max CFL number:  0.66E+00 at ( 15, 14,  8)
       Max divergence:  0.11E+01 at ( 15, 15,  1)
       Min divergence: -0.18E+00 at ( 15, 14,  5)
       Max VN number:   0.48E+00 at ( 15, 14, 13)
       Max HRRPUV:  0.70E+03 kW/m^3
       Total Heat Release Rate:             99.092 kW
       Radiation Loss to Boundaries:       -37.307 kW
 


 Time Stepping Wall Clock Time (s):      808.608
 Total Elapsed Wall Clock Time (s):      814.240

STOP: FDS completed successfully (CHID: B_walking_speed)
