
 Fire Dynamics Simulator

 Current Date     : October  4, 2018  12:16:48
 Version          : FDS 6.6.0
 Revision         : FDS6.6.0-131-g88ae75a14-HEAD
 Revision Date    : Wed Nov 1 16:03:29 2017 -0400
 Compiler         : Intel ifort 17.0.4
 Compilation Date : Nov 01, 2017  21:03:37

 MPI Enabled;    Number of MPI Processes:       1
 OpenMP Enabled; Number of OpenMP Threads:      4

 MPI version: 3.1
 MPI library version: Open MPI v3.0.0, package: Open MPI gforney@ignis.el.nist.gov Distribution, ident: 3.0.0, repo rev: v3.0.0, Sep 12, 2017

 Job TITLE        : 
 Job ID string    : smoke_sensor


 Grid Dimensions, Mesh     1

   Cells in the X Direction           140
   Cells in the Y Direction            20
   Cells in the Z Direction            10


 Physical Dimensions, Mesh     1

   Length (m)                      35.000
   Width  (m)                       5.000
   Height (m)                       2.500
   Initial Time Step (s)            0.250

 Grid Dimensions, Mesh     2

   Cells in the X Direction           140
   Cells in the Y Direction            20
   Cells in the Z Direction            10


 Physical Dimensions, Mesh     2

   Length (m)                      35.000
   Width  (m)                       5.000
   Height (m)                       2.500
   Initial Time Step (s)            0.250


 Miscellaneous Parameters

   Simulation Start Time (s)          0.0
   Simulation End Time (s)          120.0
   LES Calculation
   Eddy Viscosity:           Deardorff Model (C_DEARDORFF)                          0.10
   Near-wall Eddy Viscosity: Smagorinsky with Van Driest damping (C_SMAGORINSKY)    0.20
   Turbulent Prandtl Number          0.50
   Turbulent Schmidt Number          0.50
   Ambient Temperature (C)          20.00


 Mass Fraction Transformation Matrix to Convert Species Mixtures (Columns) to Primitive Species (Rows)

                         AIR       POLYURET  PRODUCTS
   POLYURETHANE          0.000000  1.000000  0.000000
   OXYGEN                0.232918  0.000000  0.000000
   NITROGEN              0.767082  0.000000  0.689456
   WATER VAPOR           0.000000  0.000000  0.110723
   CARBON MONOXIDE       0.000000  0.000000  0.016709
   CARBON DIOXIDE        0.000000  0.000000  0.174484
   SOOT                  0.000000  0.000000  0.007670
   HYDROGEN CYANIDE      0.000000  0.000000  0.000959


 Primitive Species Information

   POLYURETHANE
   Gas Species
   Molecular Weight (g/mol)           466.61078
   Ambient Density (kg/m^3)           19.398
   Enthalpy of Formation (J/kg)       -3.92E+06

   OXYGEN
   Gas Species
   Molecular Weight (g/mol)            31.99880
   Ambient Density (kg/m^3)            1.330
   Enthalpy of Formation (J/kg)        0.00E+00

   NITROGEN
   Gas Species
   Molecular Weight (g/mol)            28.01340
   Ambient Density (kg/m^3)            1.165
   Enthalpy of Formation (J/kg)        0.00E+00

   WATER VAPOR
   Gas Species
   Molecular Weight (g/mol)            18.01528
   Ambient Density (kg/m^3)            0.749
   Enthalpy of Formation (J/kg)       -1.34E+07

   CARBON MONOXIDE
   Gas Species
   Molecular Weight (g/mol)            28.01010
   Ambient Density (kg/m^3)            1.164
   Enthalpy of Formation (J/kg)       -3.95E+06

   CARBON DIOXIDE
   Gas Species
   Molecular Weight (g/mol)            44.00950
   Ambient Density (kg/m^3)            1.830
   Enthalpy of Formation (J/kg)       -8.94E+06

   SOOT
   Gas Species
   Molecular Weight (g/mol)            12.01070
   Ambient Density (kg/m^3)            0.499
   Enthalpy of Formation (J/kg)        0.00E+00

   HYDROGEN CYANIDE
   Gas Species
   Molecular Weight (g/mol)            27.02534
   Ambient Density (kg/m^3)            1.123
   Enthalpy of Formation (J/kg)        4.92E+06


 Tracked (Lumped) Species Information

   AIR
   Molecular Weight (g/mol)            28.85033
   Ambient Density (kg/m^3)            1.199
   Initial Mass Fraction               1.000
   Enthalpy of Formation (J/kg)      0.00E+00

   Sub Species                    Mass Fraction     Mole Fraction
   OXYGEN                         2.329175E-01      2.100000E-01
   NITROGEN                       7.670825E-01      7.900000E-01
 
     Viscosity (kg/m/s) Ambient,  293 K:  1.80E-05
                                  500 K:  2.62E-05
                                 1000 K:  4.13E-05
                                 1500 K:  5.37E-05
   Therm. Cond. (W/m/K) Ambient,  293 K:  2.56E-02
                                  500 K:  3.82E-02
                                 1000 K:  6.67E-02
                                 1500 K:  9.22E-02
        Enthalpy (J/kg) Ambient,  293 K: -5.21E+03
                                  500 K:  2.06E+05
                                 1000 K:  7.53E+05
                                 1500 K:  1.35E+06
    Spec. Heat (J/kg/K) Ambient,  293 K:  1.01E+03
                                  500 K:  1.04E+03
                                 1000 K:  1.15E+03
                                 1500 K:  1.22E+03
   Diff. Coeff. (m^2/s) Ambient,  293 K:  1.99E-05
                                  500 K:  4.95E-05
                                 1000 K:  1.58E-04
                                 1500 K:  3.09E-04

   POLYURETHANE
   Molecular Weight (g/mol)           466.61078
   Ambient Density (kg/m^3)           19.398
   Initial Mass Fraction               0.000
   Enthalpy of Formation (J/kg)     -3.92E+06

   Sub Species                    Mass Fraction     Mole Fraction
   POLYURETHANE                   1.000000E+00      1.000000E+00
 
     Viscosity (kg/m/s) Ambient,  293 K:  7.10E-05
                                  500 K:  1.03E-04
                                 1000 K:  1.61E-04
                                 1500 K:  2.10E-04
   Therm. Cond. (W/m/K) Ambient,  293 K:  6.24E-03
                                  500 K:  9.00E-03
                                 1000 K:  1.42E-02
                                 1500 K:  1.84E-02
        Enthalpy (J/kg) Ambient,  293 K: -3.90E+06
                                  500 K: -3.89E+06
                                 1000 K: -3.86E+06
                                 1500 K: -3.83E+06
    Spec. Heat (J/kg/K) Ambient,  293 K:  6.24E+01
                                  500 K:  6.24E+01
                                 1000 K:  6.24E+01
                                 1500 K:  6.24E+01
   Diff. Coeff. (m^2/s) Ambient,  293 K:  1.45E-05
                                  500 K:  3.59E-05
                                 1000 K:  1.14E-04
                                 1500 K:  2.24E-04

   PRODUCTS_1
   Molecular Weight (g/mol)            27.78320
   Ambient Density (kg/m^3)            1.155
   Initial Mass Fraction               0.000
   Enthalpy of Formation (J/kg)     -3.11E+06

   Sub Species                    Mass Fraction     Mole Fraction
   NITROGEN                       6.894557E-01      6.837901E-01
   WATER VAPOR                    1.107234E-01      1.707579E-01
   CARBON MONOXIDE                1.670880E-02      1.657345E-02
   CARBON DIOXIDE                 1.744838E-01      1.101516E-01
   SOOT                           7.669613E-03      1.774138E-02
   HYDROGEN CYANIDE               9.587038E-04      9.855883E-04
 
     Viscosity (kg/m/s) Ambient,  293 K:  1.60E-05
                                  500 K:  2.38E-05
                                 1000 K:  3.88E-05
                                 1500 K:  5.13E-05
   Therm. Cond. (W/m/K) Ambient,  293 K:  2.33E-02
                                  500 K:  3.62E-02
                                 1000 K:  6.76E-02
                                 1500 K:  9.72E-02
        Enthalpy (J/kg) Ambient,  293 K: -3.11E+06
                                  500 K: -2.88E+06
                                 1000 K: -2.27E+06
                                 1500 K: -1.58E+06
    Spec. Heat (J/kg/K) Ambient,  293 K:  1.09E+03
                                  500 K:  1.15E+03
                                 1000 K:  1.31E+03
                                 1500 K:  1.42E+03
   Diff. Coeff. (m^2/s) Ambient,  293 K:  1.96E-05
                                  500 K:  4.99E-05
                                 1000 K:  1.61E-04
                                 1500 K:  3.17E-04


 Gas Phase Reaction Information

   Reaction ID:  plastic

   Fuel                                           Heat of Combustion (kJ/kg)
   POLYURETHANE                                                   18770.0000

   Stoichiometry

   Primitive Species Stoich. Coeff.
   Species ID                                                          Molar
   POLYURETHANE                                                    -1.000000
   OXYGEN                                                         -21.993550
   NITROGEN                                                         1.113670
   WATER VAPOR                                                     20.939570
   CARBON MONOXIDE                                                  2.032357
   CARBON DIOXIDE                                                  13.507590
   SOOT                                                             2.175577
   HYDROGEN CYANIDE                                                 0.120860

   Tracked (Lumped) Species Stoich. Coeff.
   Species ID                                             Molar         Mass
   AIR                                              -104.731190    -6.475482
   POLYURETHANE                                       -1.000000    -1.000000
   PRODUCTS_1                                        122.627264     7.301541

   Reaction Kinetics

   Arrhenius Parameters
   Pre-exponential:    Infinite
   Activation Energy:  N/A

   ODE Solver:  EXPLICIT EULER
   Extinction Model:  EXTINCTION 2
   Ignition Temperature (K):            0.0
   Critical Flame Temperature (K):   1700.2


 Material Information


 Surface Conditions

   0 INERT

   1 FIRE
     HRR Per Unit Area (kW/m2)         50.0
     POLYURETHANE Mass Flux (kg/s/m2)   2.66E-03

   2 new default (DEFAULT)

   3 OPEN
     Passive Vent to Atmosphere

   4 MIRROR
     Symmetry Plane

   5 INTERPOLATED

   6 PERIODIC

   7 HVAC

   8 MASSLESS TRACER

   9 DROPLET

  10 VEGETATION

  11 EVACUATION_OUTFLOW
     Normal Velocity (m/s)         0.000

  12 MASSLESS TARGET

  13 PERIODIC WIND


 Slice File Information, Mesh     1

   Sampling Interval (s)             0.120

   1 Nodes:   0 140   0  20  10  10, Quantity: SOOT EXTINCTION COEFFICIENT
   2 Nodes:   0 140   0  20   8   8, Quantity: CARBON DIOXIDE VOLUME FRACTION
   3 Nodes:   0 140   0  20   8   8, Quantity: CARBON MONOXIDE VOLUME FRACTION
   4 Nodes:   0 140   0  20   8   8, Quantity: HYDROGEN CYANIDE VOLUME FRACTION
   5 Nodes:   0 140   0  20   8   8, Quantity: TEMPERATURE


 Slice File Information, Mesh     2

   Sampling Interval (s)             0.120

   1 Nodes:   0 140   0  20  10  10, Quantity: SOOT EXTINCTION COEFFICIENT
   2 Nodes:   0 140   0  20   8   8, Quantity: CARBON DIOXIDE VOLUME FRACTION
   3 Nodes:   0 140   0  20   8   8, Quantity: CARBON MONOXIDE VOLUME FRACTION
   4 Nodes:   0 140   0  20   8   8, Quantity: HYDROGEN CYANIDE VOLUME FRACTION
   5 Nodes:   0 140   0  20   8   8, Quantity: TEMPERATURE


 Radiation Model Information

   Number of control angles  104
   Time step increment         3
   Angle increment             5
   Theta band N_phi   Solid angle
     1:        4  0.12
     2:       12  0.11
     3:       16  0.13
     4:       20  0.12
     5:       20  0.12
     6:       16  0.13
     7:       12  0.11
     8:        4  0.12
   Using gray gas absorption.
   Mean beam length  1.250 m
 
 

 Run Time Diagnostics

       Time Step       1   October  4, 2018  12:16:49
       Step Size:    0.250E+00 s, Total Time:       0.25 s
       Pressure Iterations:      1
       Maximum Velocity Error:  0.35E-02 on Mesh   2 at (   7   9   9)
       Maximum Pressure Error:  0.25E+00 on Mesh   2 at ( 114  17   1)
       ---------------------------------------------------------------
       Mesh    1
       Max CFL number:  0.19E-01 at (   3,   8,   6)
       Max divergence:  0.12E-05 at (  96,  19,   4)
       Min divergence: -0.12E-05 at (  37,   4,   5)
       Max VN number:   0.14E-01 at (  57,  19,   6)
       Mesh    2
       Max CFL number:  0.20E-01 at (  95,   9,   6)
       Max divergence:  0.51E-01 at ( 114,  17,   1)
       Min divergence: -0.12E-05 at (  60,  14,   5)
       Max VN number:   0.14E-01 at (  36,  13,   3)
       Total Heat Release Rate:              1.102 kW
 
       Time Step       2   October  4, 2018  12:16:50
       Step Size:    0.250E+00 s, Total Time:       0.50 s
       Pressure Iterations:      1
       Maximum Velocity Error:  0.40E-02 on Mesh   2 at ( 113  21   1)
       Maximum Pressure Error:  0.52E+00 on Mesh   2 at ( 114  17   1)
       ---------------------------------------------------------------
       Mesh    1
       Max CFL number:  0.19E-01 at (   3,   8,   6)
       Max divergence:  0.12E-05 at (  96,  19,   4)
       Min divergence: -0.12E-05 at (  37,   4,   5)
       Max VN number:   0.13E-01 at (  57,  19,   6)
       Mesh    2
       Max CFL number:  0.26E-01 at ( 113,  18,   1)
       Max divergence:  0.15E+00 at ( 114,  18,   1)
       Min divergence: -0.12E-05 at ( 135,  17,   9)
       Max VN number:   0.14E-01 at (  36,  13,   3)
       Total Heat Release Rate:              3.397 kW
 
       Time Step       3   October  4, 2018  12:16:50
       Step Size:    0.250E+00 s, Total Time:       0.75 s
       Pressure Iterations:      1
       Maximum Velocity Error:  0.39E-02 on Mesh   2 at ( 113  21   2)
       Maximum Pressure Error:  0.33E+00 on Mesh   2 at ( 114  17   1)
       ---------------------------------------------------------------
       Mesh    1
       Max CFL number:  0.19E-01 at (   3,   8,   6)
       Max divergence:  0.12E-05 at (  96,  19,   4)
       Min divergence: -0.12E-05 at (  37,   4,   5)
       Max VN number:   0.13E-01 at (  57,  19,   6)
       Mesh    2
       Max CFL number:  0.70E-01 at ( 113,  18,   1)
       Max divergence:  0.24E+00 at ( 113,  18,   1)
       Min divergence: -0.12E-05 at ( 135,  17,   9)
       Max VN number:   0.14E-01 at (  36,  13,   3)
       Total Heat Release Rate:              5.725 kW
       Radiation Loss to Boundaries:        -0.230 kW
 
       Time Step       4   October  4, 2018  12:16:51
       Step Size:    0.250E+00 s, Total Time:       1.00 s
       Pressure Iterations:      1
       Maximum Velocity Error:  0.36E-02 on Mesh   2 at ( 114  21   3)
       Maximum Pressure Error:  0.80E-01 on Mesh   2 at ( 113  17   1)
       ---------------------------------------------------------------
       Mesh    1
       Max CFL number:  0.18E-01 at (   3,   8,   6)
       Max divergence:  0.12E-05 at (  96,  19,   4)
       Min divergence: -0.12E-05 at (  37,   4,   5)
       Max VN number:   0.13E-01 at (  57,  19,   6)
       Mesh    2
       Max CFL number:  0.14E+00 at ( 113,  18,   1)
       Max divergence:  0.31E+00 at ( 113,  18,   1)
       Min divergence: -0.12E-05 at ( 135,  17,   9)
       Max VN number:   0.18E-01 at ( 113,  18,   2)
       Total Heat Release Rate:              7.687 kW
       Radiation Loss to Boundaries:        -0.836 kW
 
       Time Step       5   October  4, 2018  12:16:51
       Step Size:    0.250E+00 s, Total Time:       1.25 s
       Pressure Iterations:      1
       Maximum Velocity Error:  0.61E-02 on Mesh   2 at ( 113  21   1)
       Maximum Pressure Error:  0.50E+00 on Mesh   2 at ( 114  17   1)
       ---------------------------------------------------------------
       Mesh    1
       Max CFL number:  0.18E-01 at (   3,   8,   6)
       Max divergence:  0.12E-05 at (  96,  19,   4)
       Min divergence: -0.12E-05 at (  37,   4,   5)
       Max VN number:   0.13E-01 at (  57,  19,   6)
       Mesh    2
       Max CFL number:  0.25E+00 at ( 113,  18,   1)
       Max divergence:  0.32E+00 at ( 113,  18,   1)
       Min divergence: -0.12E-05 at ( 135,  17,   9)
       Max VN number:   0.39E-01 at ( 113,  18,   2)
       Total Heat Release Rate:              9.224 kW
       Radiation Loss to Boundaries:        -1.961 kW
 
       Time Step       6   October  4, 2018  12:16:52
       Step Size:    0.250E+00 s, Total Time:       1.50 s
       Pressure Iterations:      1
       Maximum Velocity Error:  0.11E-01 on Mesh   2 at ( 113  21   1)
       Maximum Pressure Error:  0.38E+00 on Mesh   2 at ( 114  17   1)
       ---------------------------------------------------------------
       Mesh    1
       Max CFL number:  0.18E-01 at (   3,   8,   6)
       Max divergence:  0.12E-05 at (  96,  19,   4)
       Min divergence: -0.12E-05 at (  37,   4,   5)
       Max VN number:   0.13E-01 at (  57,  19,   6)
       Mesh    2
       Max CFL number:  0.40E+00 at ( 113,  18,   1)
       Max divergence:  0.29E+00 at ( 113,  18,   1)
       Min divergence: -0.51E-02 at ( 113,  18,   2)
       Max VN number:   0.79E-01 at ( 113,  18,   2)
       Total Heat Release Rate:             10.382 kW
       Radiation Loss to Boundaries:        -3.160 kW
 
       Time Step       7   October  4, 2018  12:16:52
       Step Size:    0.250E+00 s, Total Time:       1.75 s
       Pressure Iterations:      1
       Maximum Velocity Error:  0.14E-01 on Mesh   2 at ( 114  21   1)
       Maximum Pressure Error:  0.17E+00 on Mesh   2 at ( 113  18   1)
       ---------------------------------------------------------------
       Mesh    1
       Max CFL number:  0.18E-01 at (   3,   8,   6)
       Max divergence:  0.12E-05 at (  96,  19,   4)
       Min divergence: -0.12E-05 at (  37,   4,   5)
       Max VN number:   0.13E-01 at (  57,  19,   6)
       Mesh    2
       Max CFL number:  0.58E+00 at ( 113,  18,   1)
       Max divergence:  0.27E+00 at ( 113,  18,   1)
       Min divergence: -0.22E-01 at ( 113,  18,   2)
       Max VN number:   0.16E+00 at ( 113,  17,   1)
       Total Heat Release Rate:             11.158 kW
       Radiation Loss to Boundaries:        -3.292 kW
 
       Time Step       8   October  4, 2018  12:16:53
       Step Size:    0.250E+00 s, Total Time:       2.00 s
       Pressure Iterations:      1
       Maximum Velocity Error:  0.16E-01 on Mesh   2 at ( 113  21   2)
       Maximum Pressure Error:  0.52E+00 on Mesh   2 at ( 114  17   1)
       ---------------------------------------------------------------
       Mesh    1
       Max CFL number:  0.18E-01 at (  70,   6,   5)
       Max divergence:  0.12E-05 at (  96,  19,   4)
       Min divergence: -0.12E-05 at (  37,   4,   5)
       Max VN number:   0.13E-01 at (  57,  19,   6)
       Mesh    2
       Max CFL number:  0.76E+00 at ( 113,  18,   1)
       Max divergence:  0.27E+00 at ( 113,  18,   1)
       Min divergence: -0.20E-01 at ( 113,  18,   2)
       Max VN number:   0.33E+00 at ( 113,  18,   1)
       Total Heat Release Rate:             11.661 kW
       Radiation Loss to Boundaries:        -2.710 kW
 
       Time Step       9   October  4, 2018  12:16:53
       Step Size:    0.250E+00 s, Total Time:       2.25 s
       Pressure Iterations:      1
       Maximum Velocity Error:  0.24E-01 on Mesh   2 at ( 114  21   2)
       Maximum Pressure Error:  0.45E+00 on Mesh   2 at ( 113  17   1)
       ---------------------------------------------------------------
       Mesh    1
       Max CFL number:  0.18E-01 at (  25,  18,   5)
       Max divergence:  0.12E-05 at (  96,  19,   4)
       Min divergence: -0.12E-05 at (  37,   4,   5)
       Max VN number:   0.13E-01 at (  57,  19,   6)
       Mesh    2
       Max CFL number:  0.86E+00 at ( 113,  18,   1)
       Max divergence:  0.27E+00 at ( 114,  18,   1)
       Min divergence: -0.33E-01 at ( 113,  18,   3)
       Max VN number:   0.50E+00 at ( 113,  18,   1)
       Total Heat Release Rate:             11.980 kW
       Radiation Loss to Boundaries:        -2.124 kW
 
       Time Step      10   October  4, 2018  12:16:54
       Step Size:    0.204E+00 s, Total Time:       2.45 s
       Pressure Iterations:      1
       Maximum Velocity Error:  0.22E-01 on Mesh   2 at ( 114  21   2)
       Maximum Pressure Error:  0.23E+00 on Mesh   2 at ( 114  18   1)
       ---------------------------------------------------------------
       Mesh    1
       Max CFL number:  0.15E-01 at (  25,  18,   5)
       Max divergence:  0.12E-05 at (  96,  19,   4)
       Min divergence: -0.12E-05 at (  37,   4,   5)
       Max VN number:   0.11E-01 at (  57,  19,   6)
       Mesh    2
       Max CFL number:  0.86E+00 at ( 113,  18,   3)
       Max divergence:  0.31E+00 at ( 114,  18,   1)
       Min divergence: -0.40E-01 at ( 114,  18,   2)
       Max VN number:   0.47E+00 at ( 113,  17,   1)
       Total Heat Release Rate:             13.208 kW
       Radiation Loss to Boundaries:        -3.774 kW
 
       Time Step      20   October  4, 2018  12:16:59
       Step Size:    0.119E+00 s, Total Time:       3.93 s
       Pressure Iterations:      1
       Maximum Velocity Error:  0.31E-01 on Mesh   2 at ( 114  21   7)
       Maximum Pressure Error:  0.34E+00 on Mesh   2 at ( 114  18   8)
       ---------------------------------------------------------------
       Mesh    1
       Max CFL number:  0.85E-02 at (  87,   2,   9)
       Max divergence:  0.12E-05 at (  96,  19,   4)
       Min divergence: -0.12E-05 at (  37,   4,   5)
       Max VN number:   0.60E-02 at (  57,  19,   6)
       Mesh    2
       Max CFL number:  0.94E+00 at ( 114,  18,   7)
       Max divergence:  0.29E+00 at ( 114,  18,   1)
       Min divergence: -0.54E-01 at ( 114,  18,   3)
       Max VN number:   0.32E+00 at ( 114,  18,   6)
       Total Heat Release Rate:             12.771 kW
       Radiation Loss to Boundaries:        -2.865 kW
 
       Time Step      30   October  4, 2018  12:17:03
       Step Size:    0.119E+00 s, Total Time:       5.11 s
       Pressure Iterations:      1
       Maximum Velocity Error:  0.47E-01 on Mesh   2 at ( 116  21  10)
       Maximum Pressure Error:  0.41E+00 on Mesh   2 at ( 114  19  10)
       ---------------------------------------------------------------
       Mesh    1
       Max CFL number:  0.84E-02 at (  87,   2,   9)
       Max divergence:  0.12E-05 at (  56,   8,   2)
       Min divergence: -0.12E-05 at (  37,   4,   5)
       Max VN number:   0.59E-02 at (  35,   4,   2)
       Mesh    2
       Max CFL number:  0.99E+00 at ( 114,  18,   7)
       Max divergence:  0.31E+00 at ( 114,  18,   1)
       Min divergence: -0.62E-01 at ( 114,  18,   3)
       Max VN number:   0.73E+00 at ( 114,  18,  10)
       Total Heat Release Rate:             12.500 kW
       Radiation Loss to Boundaries:        -2.832 kW
 
       Time Step      40   October  4, 2018  12:17:08
       Step Size:    0.119E+00 s, Total Time:       6.30 s
       Pressure Iterations:      1
       Maximum Velocity Error:  0.40E-01 on Mesh   2 at ( 116  21   8)
       Maximum Pressure Error:  0.55E+00 on Mesh   2 at ( 116  20  10)
       ---------------------------------------------------------------
       Mesh    1
       Max CFL number:  0.84E-02 at (  87,   1,   9)
       Max divergence:  0.12E-05 at (  56,   8,   2)
       Min divergence: -0.12E-05 at (  37,   4,   5)
       Max VN number:   0.58E-02 at (  35,   4,   2)
       Mesh    2
       Max CFL number:  0.87E+00 at ( 114,  18,   7)
       Max divergence:  0.34E+00 at ( 114,  18,   1)
       Min divergence: -0.71E-01 at ( 114,  18,   4)
       Max VN number:   0.51E+00 at ( 114,  18,  10)
       Total Heat Release Rate:             12.500 kW
       Radiation Loss to Boundaries:        -2.820 kW
 
       Time Step      50   October  4, 2018  12:17:13
       Step Size:    0.119E+00 s, Total Time:       7.48 s
       Pressure Iterations:      1
       Maximum Velocity Error:  0.56E-01 on Mesh   2 at ( 107  21   9)
       Maximum Pressure Error:  0.24E+00 on Mesh   2 at ( 114  18  10)
       ---------------------------------------------------------------
       Mesh    1
       Max CFL number:  0.83E-02 at (  87,   1,   9)
       Max divergence:  0.12E-05 at (  56,   8,   2)
       Min divergence: -0.12E-05 at (  37,   4,   5)
       Max VN number:   0.57E-02 at (  85,   7,   7)
       Mesh    2
       Max CFL number:  0.92E+00 at ( 114,  18,   7)
       Max divergence:  0.34E+00 at ( 114,  18,   1)
       Min divergence: -0.16E+00 at ( 114,  18,   2)
       Max VN number:   0.48E+00 at ( 114,  17,  10)
       Total Heat Release Rate:             12.500 kW
       Radiation Loss to Boundaries:        -3.620 kW
 
       Time Step      60   October  4, 2018  12:17:19
       Step Size:    0.119E+00 s, Total Time:       8.67 s
       Pressure Iterations:      1
       Maximum Velocity Error:  0.55E-01 on Mesh   2 at ( 105  21   9)
       Maximum Pressure Error:  0.63E+00 on Mesh   2 at ( 114  18   1)
       ---------------------------------------------------------------
       Mesh    1
       Max CFL number:  0.83E-02 at (  87,   1,   9)
       Max divergence:  0.12E-05 at (  56,   8,   2)
       Min divergence: -0.12E-05 at (  37,   4,   5)
       Max VN number:   0.57E-02 at (  85,   7,   7)
       Mesh    2
       Max CFL number:  0.90E+00 at ( 114,  18,   7)
       Max divergence:  0.37E+00 at ( 114,  18,   1)
       Min divergence: -0.63E-01 at ( 114,  18,   4)
       Max VN number:   0.43E+00 at ( 114,  17,  10)
       Total Heat Release Rate:             12.500 kW
       Radiation Loss to Boundaries:        -2.588 kW
 
       Time Step      70   October  4, 2018  12:17:24
       Step Size:    0.119E+00 s, Total Time:       9.86 s
       Pressure Iterations:      1
       Maximum Velocity Error:  0.18E-01 on Mesh   2 at ( 114  21   8)
       Maximum Pressure Error:  0.29E+00 on Mesh   2 at ( 114  18   1)
       ---------------------------------------------------------------
       Mesh    1
       Max CFL number:  0.82E-02 at (  87,   1,   9)
       Max divergence:  0.12E-05 at (  56,   8,   2)
       Min divergence: -0.12E-05 at (  37,   4,   5)
       Max VN number:   0.57E-02 at (  85,   7,   7)
       Mesh    2
       Max CFL number:  0.96E+00 at ( 114,  18,   7)
       Max divergence:  0.29E+00 at ( 114,  17,   1)
       Min divergence: -0.15E+00 at ( 114,  18,   2)
       Max VN number:   0.46E+00 at ( 115,  18,  10)
       Total Heat Release Rate:             12.579 kW
       Radiation Loss to Boundaries:        -3.559 kW
 
       Time Step      80   October  4, 2018  12:17:29
       Step Size:    0.119E+00 s, Total Time:      11.04 s
       Pressure Iterations:      1
       Maximum Velocity Error:  0.17E-01 on Mesh   2 at ( 108  21  10)
       Maximum Pressure Error:  0.26E+00 on Mesh   2 at ( 114  18   1)
       ---------------------------------------------------------------
       Mesh    1
       Max CFL number:  0.82E-02 at (  87,   1,   9)
       Max divergence:  0.12E-05 at (  56,   8,   2)
       Min divergence: -0.12E-05 at (  37,   4,   5)
       Max VN number:   0.56E-02 at (  85,   7,   7)
       Mesh    2
       Max CFL number:  0.90E+00 at ( 114,  18,   7)
       Max divergence:  0.27E+00 at ( 114,  17,   1)
       Min divergence: -0.12E+00 at ( 114,  18,   2)
       Max VN number:   0.44E+00 at ( 113,  18,  10)
       Total Heat Release Rate:             12.479 kW
       Radiation Loss to Boundaries:        -3.408 kW
 
       Time Step      90   October  4, 2018  12:17:35
       Step Size:    0.143E+00 s, Total Time:      12.33 s
       Pressure Iterations:      1
       Maximum Velocity Error:  0.22E-01 on Mesh   2 at ( 115  21   4)
       Maximum Pressure Error:  0.72E+00 on Mesh   2 at ( 114  18   1)
       ---------------------------------------------------------------
       Mesh    1
       Max CFL number:  0.98E-02 at (  87,   1,   9)
       Max divergence:  0.12E-05 at (  56,   8,   2)
       Min divergence: -0.12E-05 at (  37,   4,   5)
       Max VN number:   0.67E-02 at (  85,   7,   7)
       Mesh    2
       Max CFL number:  0.88E+00 at ( 114,  19,   7)
       Max divergence:  0.28E+00 at ( 113,  18,   1)
       Min divergence: -0.18E+00 at ( 114,  18,   2)
       Max VN number:   0.60E+00 at ( 114,  19,  10)
       Total Heat Release Rate:             12.386 kW
       Radiation Loss to Boundaries:        -3.481 kW
 
       Time Step     100   October  4, 2018  12:17:39
       Step Size:    0.143E+00 s, Total Time:      13.76 s
       Pressure Iterations:      1
       Maximum Velocity Error:  0.24E-01 on Mesh   2 at ( 114  21   7)
       Maximum Pressure Error:  0.95E+00 on Mesh   2 at ( 114  18   1)
       ---------------------------------------------------------------
       Mesh    1
       Max CFL number:  0.97E-02 at (  87,   1,   9)
       Max divergence:  0.12E-05 at (  56,   8,   2)
       Min divergence: -0.11E-05 at (  37,   4,   5)
       Max VN number:   0.67E-02 at (  85,   7,   7)
       Mesh    2
       Max CFL number:  0.85E+00 at ( 114,  18,   5)
       Max divergence:  0.28E+00 at ( 113,  18,   1)
       Min divergence: -0.15E+00 at ( 114,  18,   2)
       Max VN number:   0.58E+00 at ( 114,  19,  10)
       Total Heat Release Rate:             12.520 kW
       Radiation Loss to Boundaries:        -3.467 kW
 
       Time Step     200   October  4, 2018  12:18:28
       Step Size:    0.137E+00 s, Total Time:      28.44 s
       Pressure Iterations:      1
       Maximum Velocity Error:  0.30E-01 on Mesh   2 at ( 115  21   8)
       Maximum Pressure Error:  0.40E+00 on Mesh   2 at ( 114  18   1)
       ---------------------------------------------------------------
       Mesh    1
       Max CFL number:  0.87E-02 at (  30,  14,   1)
       Max divergence:  0.11E-05 at (  96,  19,   5)
       Min divergence: -0.11E-05 at (  57,  13,   9)
       Max VN number:   0.56E-02 at (  84,   2,   9)
       Mesh    2
       Max CFL number:  0.85E+00 at ( 114,  19,   7)
       Max divergence:  0.29E+00 at ( 113,  18,   1)
       Min divergence: -0.38E-01 at ( 114,  18,   3)
       Max VN number:   0.63E+00 at ( 114,  19,  10)
       Total Heat Release Rate:             12.500 kW
       Radiation Loss to Boundaries:        -2.900 kW
 
       Time Step     300   October  4, 2018  12:19:16
       Step Size:    0.155E+00 s, Total Time:      43.77 s
       Pressure Iterations:      1
       Maximum Velocity Error:  0.11E+00 on Mesh   2 at ( 114  21   7)
       Maximum Pressure Error:  0.50E+00 on Mesh   2 at ( 115  20   9)
       ---------------------------------------------------------------
       Mesh    1
       Max CFL number:  0.96E-02 at (  30,  15,   1)
       Max divergence:  0.91E-06 at (  96,  19,   5)
       Min divergence: -0.10E-05 at (  57,  13,   9)
       Max VN number:   0.57E-02 at (  84,   2,   9)
       Mesh    2
       Max CFL number:  0.89E+00 at ( 115,  20,   7)
       Max divergence:  0.32E+00 at ( 113,  18,   1)
       Min divergence: -0.23E-01 at ( 114,  19,   5)
       Max VN number:   0.58E+00 at ( 114,  20,  10)
       Total Heat Release Rate:             12.478 kW
       Radiation Loss to Boundaries:        -3.191 kW
 
       Time Step     400   October  4, 2018  12:20:04
       Step Size:    0.145E+00 s, Total Time:      59.75 s
       Pressure Iterations:      1
       Maximum Velocity Error:  0.33E-01 on Mesh   2 at ( 108  21   9)
       Maximum Pressure Error:  0.66E+00 on Mesh   2 at ( 115  20   8)
       ---------------------------------------------------------------
       Mesh    1
       Max CFL number:  0.82E-02 at (   6,  20,   2)
       Max divergence:  0.78E-06 at (  19,  11,   2)
       Min divergence: -0.85E-06 at (  57,  13,   9)
       Max VN number:   0.47E-02 at (  95,  18,   8)
       Mesh    2
       Max CFL number:  0.92E+00 at ( 115,  18,   8)
       Max divergence:  0.29E+00 at ( 114,  17,   1)
       Min divergence: -0.12E+00 at ( 114,  18,   2)
       Max VN number:   0.60E+00 at ( 115,  18,  10)
       Total Heat Release Rate:             12.791 kW
       Radiation Loss to Boundaries:        -3.781 kW
 
       Time Step     500   October  4, 2018  12:20:50
       Step Size:    0.153E+00 s, Total Time:      75.17 s
       Pressure Iterations:      1
       Maximum Velocity Error:  0.28E-01 on Mesh   2 at ( 117  17   8)
       Maximum Pressure Error:  0.75E+00 on Mesh   2 at ( 115  20   8)
       ---------------------------------------------------------------
       Mesh    1
       Max CFL number:  0.83E-02 at (  14,  19,   1)
       Max divergence:  0.69E-06 at ( 100,  18,   5)
       Min divergence: -0.72E-06 at ( 118,   9,   9)
       Max VN number:   0.47E-02 at (  95,  18,   8)
       Mesh    2
       Max CFL number:  0.85E+00 at ( 115,  18,   5)
       Max divergence:  0.27E+00 at ( 114,  17,   1)
       Min divergence: -0.35E-01 at ( 115,  18,   3)
       Max VN number:   0.52E+00 at ( 116,  17,  10)
       Total Heat Release Rate:             12.501 kW
       Radiation Loss to Boundaries:        -3.115 kW
 
       Time Step     600   October  4, 2018  12:21:38
       Step Size:    0.154E+00 s, Total Time:      90.35 s
       Pressure Iterations:      1
       Maximum Velocity Error:  0.55E-01 on Mesh   2 at ( 115  21   6)
       Maximum Pressure Error:  0.72E+00 on Mesh   2 at ( 113  17   1)
       ---------------------------------------------------------------
       Mesh    1
       Max CFL number:  0.81E-02 at (   5,  18,   1)
       Max divergence:  0.61E-06 at ( 100,  18,   5)
       Min divergence: -0.65E-06 at ( 110,   9,   9)
       Max VN number:   0.43E-02 at ( 111,  14,   9)
       Mesh    2
       Max CFL number:  0.85E+00 at ( 114,  19,   7)
       Max divergence:  0.30E+00 at ( 114,  17,   1)
       Min divergence: -0.11E+00 at ( 114,  18,   2)
       Max VN number:   0.51E+00 at ( 115,  19,  10)
       Total Heat Release Rate:             12.457 kW
       Radiation Loss to Boundaries:        -3.803 kW
 
       Time Step     700   October  4, 2018  12:22:26
       Step Size:    0.146E+00 s, Total Time:     106.65 s
       Pressure Iterations:      1
       Maximum Velocity Error:  0.49E-01 on Mesh   2 at ( 117  17   7)
       Maximum Pressure Error:  0.69E+00 on Mesh   2 at ( 114  18   1)
       ---------------------------------------------------------------
       Mesh    1
       Max CFL number:  0.73E-02 at (  81,  14,   4)
       Max divergence:  0.55E-06 at (  74,  12,   2)
       Min divergence: -0.62E-06 at (  22,  15,   9)
       Max VN number:   0.40E-02 at ( 111,  14,   9)
       Mesh    2
       Max CFL number:  0.85E+00 at ( 115,  17,   8)
       Max divergence:  0.28E+00 at ( 114,  17,   1)
       Min divergence: -0.55E-01 at ( 114,  18,   2)
       Max VN number:   0.47E+00 at ( 115,  18,  10)
       Total Heat Release Rate:             12.664 kW
       Radiation Loss to Boundaries:        -3.089 kW
 
       Time Step     789   October  4, 2018  12:23:08
       Step Size:    0.639E-02 s, Total Time:     120.00 s
       Pressure Iterations:      1
       Maximum Velocity Error:  0.15E-01 on Mesh   2 at ( 117  18   9)
       Maximum Pressure Error:  0.32E+02 on Mesh   2 at ( 114  18   1)
       ---------------------------------------------------------------
       Mesh    1
       Max CFL number:  0.30E-03 at (  81,  14,   4)
       Max divergence:  0.53E-06 at (   9,  20,   2)
       Min divergence: -0.62E-06 at (  22,  15,   9)
       Max VN number:   0.17E-03 at (  25,  19,   5)
       Mesh    2
       Max CFL number:  0.36E-01 at ( 116,  18,   8)
       Max divergence:  0.47E+00 at ( 114,  17,   1)
       Min divergence: -0.37E-01 at ( 115,  18,   2)
       Max VN number:   0.23E-01 at ( 115,  18,  10)
       Total Heat Release Rate:             17.170 kW
       Radiation Loss to Boundaries:        -3.776 kW
 


 Time Stepping Wall Clock Time (s):      379.867
 Total Elapsed Wall Clock Time (s):      385.346

STOP: FDS completed successfully (CHID: smoke_sensor)
