
 Fire Dynamics Simulator

 Current Date     : December 20, 2017  16:36:43
 Version          : FDS 6.6.0
 Revision         : FDS6.6.0-131-g88ae75a14-HEAD
 Revision Date    : Wed Nov 1 16:03:29 2017 -0400
 Compiler         : Intel ifort 17.0.4
 Compilation Date : Nov 01, 2017  21:03:37

 MPI Enabled;    Number of MPI Processes:       1
 OpenMP Enabled; Number of OpenMP Threads:      4

 MPI version: 3.1
 MPI library version: Open MPI v3.0.0, package: Open MPI gforney@ignis.el.nist.gov Distribution, ident: 3.0.0, repo rev: v3.0.0, Sep 12, 2017

 Job TITLE        : 
 Job ID string    : smoke_sensor


 Grid Dimensions, Mesh     1

   Cells in the X Direction           140
   Cells in the Y Direction            40
   Cells in the Z Direction            10


 Physical Dimensions, Mesh     1

   Length (m)                      35.000
   Width  (m)                      10.000
   Height (m)                       2.500
   Initial Time Step (s)            0.250


 Miscellaneous Parameters

   Simulation Start Time (s)          0.0
   Simulation End Time (s)          120.0
   LES Calculation
   Eddy Viscosity:           Deardorff Model (C_DEARDORFF)                          0.10
   Near-wall Eddy Viscosity: Smagorinsky with Van Driest damping (C_SMAGORINSKY)    0.20
   Turbulent Prandtl Number          0.50
   Turbulent Schmidt Number          0.50
   Ambient Temperature (C)          20.00


 Mass Fraction Transformation Matrix to Convert Species Mixtures (Columns) to Primitive Species (Rows)

                         AIR       REAC_FUE  PRODUCTS
   REAC_FUEL             0.000000  1.000000  0.000000
   NITROGEN              0.763077  0.000000  0.673030
   OXYGEN                0.231181  0.000000  0.000000
   CARBON DIOXIDE        0.000592  0.000000  0.242589
   CARBON MONOXIDE       0.000000  0.000000  0.000000
   WATER VAPOR           0.005149  0.000000  0.070648
   SOOT                  0.000000  0.000000  0.013733


 Primitive Species Information

   REAC_FUEL
   Gas Species
   Molecular Weight (g/mol)           130.42922
   Ambient Density (kg/m^3)            5.422
   Enthalpy of Formation (J/kg)       -3.21E+06

   NITROGEN
   Gas Species
   Molecular Weight (g/mol)            28.01340
   Ambient Density (kg/m^3)            1.165
   Enthalpy of Formation (J/kg)        0.00E+00

   OXYGEN
   Gas Species
   Molecular Weight (g/mol)            31.99880
   Ambient Density (kg/m^3)            1.330
   Enthalpy of Formation (J/kg)        0.00E+00

   CARBON DIOXIDE
   Gas Species
   Molecular Weight (g/mol)            44.00950
   Ambient Density (kg/m^3)            1.830
   Enthalpy of Formation (J/kg)       -8.94E+06

   CARBON MONOXIDE
   Gas Species
   Molecular Weight (g/mol)            28.01010
   Ambient Density (kg/m^3)            1.164
   Enthalpy of Formation (J/kg)       -3.95E+06

   WATER VAPOR
   Gas Species
   Molecular Weight (g/mol)            18.01528
   Ambient Density (kg/m^3)            0.749
   Enthalpy of Formation (J/kg)       -1.34E+07

   SOOT
   Gas Species
   Molecular Weight (g/mol)            10.91042
   Ambient Density (kg/m^3)            0.454
   Enthalpy of Formation (J/kg)        0.00E+00


 Tracked (Lumped) Species Information

   AIR
   Molecular Weight (g/mol)            28.76564
   Ambient Density (kg/m^3)            1.196
   Initial Mass Fraction               1.000
   Enthalpy of Formation (J/kg)     -7.44E+04

   Sub Species                    Mass Fraction     Mole Fraction
   NITROGEN                       7.630774E-01      7.835682E-01
   OXYGEN                         2.311814E-01      2.078229E-01
   CARBON DIOXIDE                 5.919362E-04      3.869034E-04
   WATER VAPOR                    5.149269E-03      8.222023E-03
 
     Viscosity (kg/m/s) Ambient,  293 K:  1.80E-05
                                  500 K:  2.61E-05
                                 1000 K:  4.13E-05
                                 1500 K:  5.37E-05
   Therm. Cond. (W/m/K) Ambient,  293 K:  2.56E-02
                                  500 K:  3.81E-02
                                 1000 K:  6.68E-02
                                 1500 K:  9.24E-02
        Enthalpy (J/kg) Ambient,  293 K: -7.97E+04
                                  500 K:  1.33E+05
                                 1000 K:  6.82E+05
                                 1500 K:  1.28E+06
    Spec. Heat (J/kg/K) Ambient,  293 K:  1.02E+03
                                  500 K:  1.04E+03
                                 1000 K:  1.16E+03
                                 1500 K:  1.23E+03
   Diff. Coeff. (m^2/s) Ambient,  293 K:  1.99E-05
                                  500 K:  4.96E-05
                                 1000 K:  1.58E-04
                                 1500 K:  3.09E-04

   REAC_FUEL
   Molecular Weight (g/mol)           130.42922
   Ambient Density (kg/m^3)            5.422
   Initial Mass Fraction               0.000
   Enthalpy of Formation (J/kg)     -3.21E+06

   Sub Species                    Mass Fraction     Mole Fraction
   REAC_FUEL                      1.000000E+00      1.000000E+00
 
     Viscosity (kg/m/s) Ambient,  293 K:  3.75E-05
                                  500 K:  5.42E-05
                                 1000 K:  8.52E-05
                                 1500 K:  1.11E-04
   Therm. Cond. (W/m/K) Ambient,  293 K:  1.18E-02
                                  500 K:  1.70E-02
                                 1000 K:  2.68E-02
                                 1500 K:  3.48E-02
        Enthalpy (J/kg) Ambient,  293 K: -3.21E+06
                                  500 K: -3.16E+06
                                 1000 K: -3.05E+06
                                 1500 K: -2.94E+06
    Spec. Heat (J/kg/K) Ambient,  293 K:  2.23E+02
                                  500 K:  2.23E+02
                                 1000 K:  2.23E+02
                                 1500 K:  2.23E+02
   Diff. Coeff. (m^2/s) Ambient,  293 K:  1.55E-05
                                  500 K:  3.85E-05
                                 1000 K:  1.22E-04
                                 1500 K:  2.39E-04

   PRODUCTS
   Molecular Weight (g/mol)            28.80371
   Ambient Density (kg/m^3)            1.197
   Initial Mass Fraction               0.000
   Enthalpy of Formation (J/kg)     -3.12E+06

   Sub Species                    Mass Fraction     Mole Fraction
   NITROGEN                       6.730299E-01      6.920173E-01
   CARBON DIOXIDE                 2.425892E-01      1.587718E-01
   CARBON MONOXIDE                0.000000E+00      0.000000E+00
   WATER VAPOR                    7.064759E-02      1.129548E-01
   SOOT                           1.373328E-02      3.625609E-02
 
     Viscosity (kg/m/s) Ambient,  293 K:  1.61E-05
                                  500 K:  2.39E-05
                                 1000 K:  3.88E-05
                                 1500 K:  5.10E-05
   Therm. Cond. (W/m/K) Ambient,  293 K:  2.30E-02
                                  500 K:  3.60E-02
                                 1000 K:  6.69E-02
                                 1500 K:  9.52E-02
        Enthalpy (J/kg) Ambient,  293 K: -3.12E+06
                                  500 K: -2.90E+06
                                 1000 K: -2.30E+06
                                 1500 K: -1.64E+06
    Spec. Heat (J/kg/K) Ambient,  293 K:  1.04E+03
                                  500 K:  1.11E+03
                                 1000 K:  1.27E+03
                                 1500 K:  1.37E+03
   Diff. Coeff. (m^2/s) Ambient,  293 K:  1.95E-05
                                  500 K:  4.92E-05
                                 1000 K:  1.58E-04
                                 1500 K:  3.11E-04


 Gas Phase Reaction Information

   NFPA Babrauskas

   Reaction ID:  POLYURETHANE

   Fuel                                           Heat of Combustion (kJ/kg)
   REAC_FUEL                                                      19023.6298

   Stoichiometry

   Primitive Species Stoich. Coeff.
   Species ID                                                          Molar
   REAC_FUEL                                                       -1.000000
   NITROGEN                                                         0.500000
   OXYGEN                                                          -5.919204
   CARBON DIOXIDE                                                   5.224090
   WATER VAPOR                                                      3.490227
   SOOT                                                             1.195455

   Tracked (Lumped) Species Stoich. Coeff.
   Species ID                                             Molar         Mass
   AIR                                               -28.481969    -6.281584
   REAC_FUEL                                          -1.000000    -1.000000
   PRODUCTS                                           32.972537     7.281584

   Reaction Kinetics

   Arrhenius Parameters
   Pre-exponential:    Infinite
   Activation Energy:  N/A

   ODE Solver:  EXPLICIT EULER
   Extinction Model:  EXTINCTION 2
   Ignition Temperature (K):            0.0
   Critical Flame Temperature (K):   1700.2


 Material Information


 Surface Conditions

   0 INERT

   1 FIRE
     HRR Per Unit Area (kW/m2)         50.0
     REAC_FUEL Mass Flux (kg/s/m2)   2.63E-03

   2 new default (DEFAULT)

   3 OPEN
     Passive Vent to Atmosphere

   4 MIRROR
     Symmetry Plane

   5 INTERPOLATED

   6 PERIODIC

   7 HVAC

   8 MASSLESS TRACER

   9 DROPLET

  10 VEGETATION

  11 EVACUATION_OUTFLOW
     Normal Velocity (m/s)         0.000

  12 MASSLESS TARGET

  13 PERIODIC WIND


 Slice File Information, Mesh     1

   Sampling Interval (s)             0.120

   1 Nodes:   0 140   0  40  10  10, Quantity: SOOT EXTINCTION COEFFICIENT


 Radiation Model Information

   Number of control angles  104
   Time step increment         3
   Angle increment             5
   Theta band N_phi   Solid angle
     1:        4  0.12
     2:       12  0.11
     3:       16  0.13
     4:       20  0.12
     5:       20  0.12
     6:       16  0.13
     7:       12  0.11
     8:        4  0.12
   Using gray gas absorption.
   Mean beam length  1.250 m
 
 

 Run Time Diagnostics

       Time Step       1   December 20, 2017  16:36:44
       Step Size:    0.250E+00 s, Total Time:       0.25 s
       Pressure Iterations:      1
       Maximum Velocity Error:  0.37E-02 on Mesh   1 at ( 118  29   6)
       Maximum Pressure Error:  0.20E+00 on Mesh   1 at ( 113  37   1)
       ---------------------------------------------------------------
       Max CFL number:  0.19E-01 at ( 125,  27,   7)
       Max divergence:  0.48E-01 at ( 113,  37,   1)
       Min divergence: -0.12E-05 at (  46,  17,   6)
       Max VN number:   0.14E-01 at (   9,   9,   7)
       Total Heat Release Rate:              1.055 kW
 
       Time Step       2   December 20, 2017  16:36:44
       Step Size:    0.250E+00 s, Total Time:       0.50 s
       Pressure Iterations:      1
       Maximum Velocity Error:  0.40E-02 on Mesh   1 at ( 114  41   1)
       Maximum Pressure Error:  0.45E+00 on Mesh   1 at ( 113  37   1)
       ---------------------------------------------------------------
       Max CFL number:  0.22E-01 at ( 114,  37,   1)
       Max divergence:  0.15E+00 at ( 113,  37,   1)
       Min divergence: -0.12E-05 at (  46,  17,   6)
       Max VN number:   0.14E-01 at ( 126,  19,   6)
       Total Heat Release Rate:              3.336 kW
 
       Time Step       3   December 20, 2017  16:36:44
       Step Size:    0.250E+00 s, Total Time:       0.75 s
       Pressure Iterations:      1
       Maximum Velocity Error:  0.39E-02 on Mesh   1 at ( 114  41   2)
       Maximum Pressure Error:  0.24E+00 on Mesh   1 at ( 114  38   1)
       ---------------------------------------------------------------
       Max CFL number:  0.65E-01 at ( 114,  37,   1)
       Max divergence:  0.23E+00 at ( 113,  38,   1)
       Min divergence: -0.12E-05 at (  46,  17,   6)
       Max VN number:   0.14E-01 at ( 126,  19,   6)
       Total Heat Release Rate:              5.700 kW
       Radiation Loss to Boundaries:        -0.493 kW
 
       Time Step       4   December 20, 2017  16:36:45
       Step Size:    0.250E+00 s, Total Time:       1.00 s
       Pressure Iterations:      1
       Maximum Velocity Error:  0.34E-02 on Mesh   1 at ( 114  41   3)
       Maximum Pressure Error:  0.13E+00 on Mesh   1 at ( 113  37   1)
       ---------------------------------------------------------------
       Max CFL number:  0.13E+00 at ( 114,  37,   1)
       Max divergence:  0.26E+00 at ( 114,  38,   1)
       Min divergence: -0.12E-05 at (  46,  17,   6)
       Max VN number:   0.19E-01 at ( 114,  38,   2)
       Total Heat Release Rate:              7.716 kW
       Radiation Loss to Boundaries:        -1.456 kW
 
       Time Step       5   December 20, 2017  16:36:45
       Step Size:    0.250E+00 s, Total Time:       1.25 s
       Pressure Iterations:      1
       Maximum Velocity Error:  0.62E-02 on Mesh   1 at ( 113  41   1)
       Maximum Pressure Error:  0.55E+00 on Mesh   1 at ( 113  37   1)
       ---------------------------------------------------------------
       Max CFL number:  0.23E+00 at ( 114,  37,   1)
       Max divergence:  0.27E+00 at ( 113,  37,   1)
       Min divergence: -0.12E-05 at (  46,  17,   6)
       Max VN number:   0.37E-01 at ( 114,  38,   2)
       Total Heat Release Rate:              9.264 kW
       Radiation Loss to Boundaries:        -3.131 kW
 
       Time Step       6   December 20, 2017  16:36:46
       Step Size:    0.250E+00 s, Total Time:       1.50 s
       Pressure Iterations:      1
       Maximum Velocity Error:  0.10E-01 on Mesh   1 at ( 113  41   1)
       Maximum Pressure Error:  0.37E+00 on Mesh   1 at ( 113  38   1)
       ---------------------------------------------------------------
       Max CFL number:  0.36E+00 at ( 113,  37,   1)
       Max divergence:  0.23E+00 at ( 114,  37,   1)
       Min divergence: -0.18E-02 at ( 113,  37,   2)
       Max VN number:   0.73E-01 at ( 113,  37,   2)
       Total Heat Release Rate:             10.395 kW
       Radiation Loss to Boundaries:        -4.562 kW
 
       Time Step       7   December 20, 2017  16:36:46
       Step Size:    0.250E+00 s, Total Time:       1.75 s
       Pressure Iterations:      1
       Maximum Velocity Error:  0.10E-01 on Mesh   1 at ( 114  41   1)
       Maximum Pressure Error:  0.25E+00 on Mesh   1 at ( 113  37   1)
       ---------------------------------------------------------------
       Max CFL number:  0.52E+00 at ( 113,  37,   1)
       Max divergence:  0.24E+00 at ( 114,  37,   1)
       Min divergence: -0.15E-01 at ( 113,  37,   2)
       Max VN number:   0.15E+00 at ( 114,  38,   1)
       Total Heat Release Rate:             11.162 kW
       Radiation Loss to Boundaries:        -4.084 kW
 
       Time Step       8   December 20, 2017  16:36:47
       Step Size:    0.250E+00 s, Total Time:       2.00 s
       Pressure Iterations:      1
       Maximum Velocity Error:  0.12E-01 on Mesh   1 at ( 114  41   1)
       Maximum Pressure Error:  0.42E+00 on Mesh   1 at ( 113  37   1)
       ---------------------------------------------------------------
       Max CFL number:  0.69E+00 at ( 113,  37,   1)
       Max divergence:  0.26E+00 at ( 113,  37,   1)
       Min divergence: -0.18E-01 at ( 113,  38,   2)
       Max VN number:   0.29E+00 at ( 114,  37,   1)
       Total Heat Release Rate:             11.662 kW
       Radiation Loss to Boundaries:        -3.366 kW
 
       Time Step       9   December 20, 2017  16:36:47
       Step Size:    0.250E+00 s, Total Time:       2.25 s
       Pressure Iterations:      1
       Maximum Velocity Error:  0.19E-01 on Mesh   1 at ( 114  41   2)
       Maximum Pressure Error:  0.40E+00 on Mesh   1 at ( 113  38   1)
       ---------------------------------------------------------------
       Max CFL number:  0.80E+00 at ( 113,  37,   1)
       Max divergence:  0.25E+00 at ( 113,  38,   1)
       Min divergence: -0.25E-01 at ( 113,  37,   3)
       Max VN number:   0.44E+00 at ( 113,  37,   1)
       Total Heat Release Rate:             11.981 kW
       Radiation Loss to Boundaries:        -2.864 kW
 
       Time Step      10   December 20, 2017  16:36:48
       Step Size:    0.250E+00 s, Total Time:       2.50 s
       Pressure Iterations:      1
       Maximum Velocity Error:  0.25E-01 on Mesh   1 at ( 114  41   2)
       Maximum Pressure Error:  0.30E+00 on Mesh   1 at ( 113  37   3)
       ---------------------------------------------------------------
       Max CFL number:  0.99E+00 at ( 113,  37,   3)
       Max divergence:  0.23E+00 at ( 113,  38,   1)
       Min divergence: -0.80E-01 at ( 113,  37,   2)
       Max VN number:   0.53E+00 at ( 113,  37,   1)
       Total Heat Release Rate:             12.181 kW
       Radiation Loss to Boundaries:        -3.376 kW
 
       Time Step      20   December 20, 2017  16:36:53
       Step Size:    0.126E+00 s, Total Time:       4.04 s
       Pressure Iterations:      1
       Maximum Velocity Error:  0.28E-01 on Mesh   1 at ( 113  41   7)
       Maximum Pressure Error:  0.31E+00 on Mesh   1 at ( 114  38   1)
       ---------------------------------------------------------------
       Max CFL number:  0.95E+00 at ( 114,  38,   7)
       Max divergence:  0.26E+00 at ( 114,  38,   1)
       Min divergence: -0.45E-01 at ( 114,  38,   3)
       Max VN number:   0.33E+00 at ( 114,  38,   6)
       Total Heat Release Rate:             12.692 kW
       Radiation Loss to Boundaries:        -3.495 kW
 
       Time Step      30   December 20, 2017  16:36:57
       Step Size:    0.112E+00 s, Total Time:       5.18 s
       Pressure Iterations:      1
       Maximum Velocity Error:  0.30E-01 on Mesh   1 at ( 115  41  10)
       Maximum Pressure Error:  0.28E+00 on Mesh   1 at ( 115  38  10)
       ---------------------------------------------------------------
       Max CFL number:  0.88E+00 at ( 114,  38,   6)
       Max divergence:  0.27E+00 at ( 114,  38,   1)
       Min divergence: -0.62E-01 at ( 114,  38,   9)
       Max VN number:   0.67E+00 at ( 114,  38,  10)
       Total Heat Release Rate:             12.512 kW
       Radiation Loss to Boundaries:        -3.567 kW
 
       Time Step      40   December 20, 2017  16:37:02
       Step Size:    0.112E+00 s, Total Time:       6.30 s
       Pressure Iterations:      1
       Maximum Velocity Error:  0.34E-01 on Mesh   1 at ( 116  41   9)
       Maximum Pressure Error:  0.52E+00 on Mesh   1 at ( 116  40  10)
       ---------------------------------------------------------------
       Max CFL number:  0.82E+00 at ( 114,  38,   7)
       Max divergence:  0.28E+00 at ( 114,  38,   1)
       Min divergence: -0.67E-01 at ( 114,  38,   4)
       Max VN number:   0.54E+00 at ( 114,  38,  10)
       Total Heat Release Rate:             12.500 kW
       Radiation Loss to Boundaries:        -3.527 kW
 
       Time Step      50   December 20, 2017  16:37:06
       Step Size:    0.123E+00 s, Total Time:       7.51 s
       Pressure Iterations:      1
       Maximum Velocity Error:  0.50E-01 on Mesh   1 at ( 108  41   9)
       Maximum Pressure Error:  0.32E+00 on Mesh   1 at ( 114  38  10)
       ---------------------------------------------------------------
       Max CFL number:  0.92E+00 at ( 114,  38,   7)
       Max divergence:  0.35E+00 at ( 114,  38,   1)
       Min divergence: -0.18E+00 at ( 114,  38,   2)
       Max VN number:   0.46E+00 at ( 114,  39,  10)
       Total Heat Release Rate:             12.494 kW
       Radiation Loss to Boundaries:        -3.932 kW
 
       Time Step      60   December 20, 2017  16:37:11
       Step Size:    0.123E+00 s, Total Time:       8.73 s
       Pressure Iterations:      1
       Maximum Velocity Error:  0.40E-01 on Mesh   1 at ( 106  41   9)
       Maximum Pressure Error:  0.40E+00 on Mesh   1 at ( 114  38   1)
       ---------------------------------------------------------------
       Max CFL number:  0.94E+00 at ( 114,  38,   7)
       Max divergence:  0.35E+00 at ( 114,  38,   1)
       Min divergence: -0.13E+00 at ( 114,  38,   2)
       Max VN number:   0.45E+00 at ( 115,  38,  10)
       Total Heat Release Rate:             12.500 kW
       Radiation Loss to Boundaries:        -3.564 kW
 
       Time Step      70   December 20, 2017  16:37:16
       Step Size:    0.123E+00 s, Total Time:       9.96 s
       Pressure Iterations:      1
       Maximum Velocity Error:  0.16E-01 on Mesh   1 at ( 106  41   8)
       Maximum Pressure Error:  0.35E+00 on Mesh   1 at ( 114  38   1)
       ---------------------------------------------------------------
       Max CFL number:  0.96E+00 at ( 114,  38,   8)
       Max divergence:  0.28E+00 at ( 113,  38,   1)
       Min divergence: -0.15E+00 at ( 114,  38,   2)
       Max VN number:   0.42E+00 at ( 115,  38,  10)
       Total Heat Release Rate:             12.500 kW
       Radiation Loss to Boundaries:        -3.807 kW
 
       Time Step      80   December 20, 2017  16:37:20
       Step Size:    0.123E+00 s, Total Time:      11.19 s
       Pressure Iterations:      1
       Maximum Velocity Error:  0.15E-01 on Mesh   1 at ( 109  41  10)
       Maximum Pressure Error:  0.17E+00 on Mesh   1 at ( 114  38   1)
       ---------------------------------------------------------------
       Max CFL number:  0.95E+00 at ( 114,  38,   7)
       Max divergence:  0.27E+00 at ( 113,  38,   1)
       Min divergence: -0.14E+00 at ( 114,  38,   2)
       Max VN number:   0.46E+00 at ( 114,  37,  10)
       Total Heat Release Rate:             12.496 kW
       Radiation Loss to Boundaries:        -3.984 kW
 
       Time Step      90   December 20, 2017  16:37:25
       Step Size:    0.135E+00 s, Total Time:      12.44 s
       Pressure Iterations:      1
       Maximum Velocity Error:  0.14E-01 on Mesh   1 at ( 114  41   9)
       Maximum Pressure Error:  0.78E+00 on Mesh   1 at ( 114  38   1)
       ---------------------------------------------------------------
       Max CFL number:  0.78E+00 at ( 115,  38,   7)
       Max divergence:  0.27E+00 at ( 114,  37,   1)
       Min divergence: -0.18E+00 at ( 114,  38,   2)
       Max VN number:   0.57E+00 at ( 114,  38,  10)
       Total Heat Release Rate:             12.333 kW
       Radiation Loss to Boundaries:        -3.607 kW
 
       Time Step     100   December 20, 2017  16:37:29
       Step Size:    0.149E+00 s, Total Time:      13.93 s
       Pressure Iterations:      1
       Maximum Velocity Error:  0.28E-01 on Mesh   1 at ( 114  41   7)
       Maximum Pressure Error:  0.11E+01 on Mesh   1 at ( 114  38   1)
       ---------------------------------------------------------------
       Max CFL number:  0.85E+00 at ( 114,  38,   4)
       Max divergence:  0.28E+00 at ( 113,  38,   1)
       Min divergence: -0.15E+00 at ( 114,  38,   2)
       Max VN number:   0.55E+00 at ( 114,  39,  10)
       Total Heat Release Rate:             12.524 kW
       Radiation Loss to Boundaries:        -3.524 kW
 
       Time Step     200   December 20, 2017  16:38:15
       Step Size:    0.139E+00 s, Total Time:      28.98 s
       Pressure Iterations:      1
       Maximum Velocity Error:  0.27E-01 on Mesh   1 at ( 115  41   8)
       Maximum Pressure Error:  0.46E+00 on Mesh   1 at ( 114  38   1)
       ---------------------------------------------------------------
       Max CFL number:  0.82E+00 at ( 114,  39,   7)
       Max divergence:  0.27E+00 at ( 113,  38,   1)
       Min divergence: -0.37E-01 at ( 114,  38,   3)
       Max VN number:   0.55E+00 at ( 114,  39,  10)
       Total Heat Release Rate:             12.500 kW
       Radiation Loss to Boundaries:        -3.581 kW
 
       Time Step     300   December 20, 2017  16:39:02
       Step Size:    0.161E+00 s, Total Time:      44.65 s
       Pressure Iterations:      1
       Maximum Velocity Error:  0.68E-01 on Mesh   1 at ( 114  41   7)
       Maximum Pressure Error:  0.44E+00 on Mesh   1 at ( 114  38   1)
       ---------------------------------------------------------------
       Max CFL number:  0.92E+00 at ( 115,  40,   8)
       Max divergence:  0.29E+00 at ( 113,  38,   1)
       Min divergence: -0.52E-01 at ( 114,  39,   2)
       Max VN number:   0.45E+00 at ( 116,  29,  10)
       Total Heat Release Rate:             12.490 kW
       Radiation Loss to Boundaries:        -3.828 kW
 
       Time Step     400   December 20, 2017  16:39:51
       Step Size:    0.154E+00 s, Total Time:      60.93 s
       Pressure Iterations:      1
       Maximum Velocity Error:  0.18E-01 on Mesh   1 at ( 117  37   8)
       Maximum Pressure Error:  0.44E+00 on Mesh   1 at ( 114  38   1)
       ---------------------------------------------------------------
       Max CFL number:  0.84E+00 at ( 115,  38,   7)
       Max divergence:  0.27E+00 at ( 114,  37,   1)
       Min divergence: -0.38E-01 at ( 114,  38,   3)
       Max VN number:   0.54E+00 at ( 115,  37,  10)
       Total Heat Release Rate:             12.500 kW
       Radiation Loss to Boundaries:        -3.844 kW
 
       Time Step     500   December 20, 2017  16:40:37
       Step Size:    0.155E+00 s, Total Time:      76.44 s
       Pressure Iterations:      1
       Maximum Velocity Error:  0.42E-01 on Mesh   1 at ( 107  41   9)
       Maximum Pressure Error:  0.38E+00 on Mesh   1 at ( 114  37   1)
       ---------------------------------------------------------------
       Max CFL number:  0.94E+00 at ( 115,  38,   5)
       Max divergence:  0.25E+00 at ( 114,  37,   1)
       Min divergence: -0.44E-01 at ( 115,  38,   5)
       Max VN number:   0.53E+00 at ( 114,  38,  10)
       Total Heat Release Rate:             12.500 kW
       Radiation Loss to Boundaries:        -3.691 kW
 
       Time Step     600   December 20, 2017  16:41:20
       Step Size:    0.143E+00 s, Total Time:      92.58 s
       Pressure Iterations:      1
       Maximum Velocity Error:  0.77E-01 on Mesh   1 at ( 115  41   8)
       Maximum Pressure Error:  0.26E+00 on Mesh   1 at ( 115  40   4)
       ---------------------------------------------------------------
       Max CFL number:  0.79E+00 at ( 115,  40,   7)
       Max divergence:  0.27E+00 at ( 114,  37,   1)
       Min divergence: -0.29E-01 at ( 114,  38,   2)
       Max VN number:   0.46E+00 at ( 115,  40,   7)
       Total Heat Release Rate:             12.502 kW
       Radiation Loss to Boundaries:        -3.865 kW
 
       Time Step     700   December 20, 2017  16:42:05
       Step Size:    0.145E+00 s, Total Time:     108.52 s
       Pressure Iterations:      1
       Maximum Velocity Error:  0.46E-01 on Mesh   1 at ( 117  37   8)
       Maximum Pressure Error:  0.24E+00 on Mesh   1 at ( 115  40   9)
       ---------------------------------------------------------------
       Max CFL number:  0.82E+00 at ( 116,  37,   7)
       Max divergence:  0.27E+00 at ( 114,  37,   1)
       Min divergence: -0.10E+00 at ( 114,  38,   2)
       Max VN number:   0.55E+00 at ( 115,  37,  10)
       Total Heat Release Rate:             12.516 kW
       Radiation Loss to Boundaries:        -4.043 kW
 
       Time Step     773   December 20, 2017  16:42:39
       Step Size:    0.695E-02 s, Total Time:     120.00 s
       Pressure Iterations:      1
       Maximum Velocity Error:  0.87E-02 on Mesh   1 at ( 117  29  10)
       Maximum Pressure Error:  0.25E+02 on Mesh   1 at ( 114  38   1)
       ---------------------------------------------------------------
       Max CFL number:  0.40E-01 at ( 115,  38,   7)
       Max divergence:  0.43E+00 at ( 114,  38,   1)
       Min divergence: -0.16E+00 at ( 114,  38,   2)
       Max VN number:   0.27E-01 at ( 115,  38,  10)
       Total Heat Release Rate:             17.081 kW
       Radiation Loss to Boundaries:        -4.866 kW
 


 Time Stepping Wall Clock Time (s):      356.274
 Total Elapsed Wall Clock Time (s):      363.124

STOP: FDS completed successfully (CHID: smoke_sensor)
